                                   MODFLOW 6
                U.S. GEOLOGICAL SURVEY MODULAR HYDROLOGIC MODEL
                          GROUNDWATER FLOW MODEL (GWF)
                            VERSION 6.3.0 03/04/2022

   MODFLOW 6 compiled Mar 02 2022 15:29:04 with Intel(R) Fortran Intel(R) 64
   Compiler Classic for applications running on Intel(R) 64, Version 2021.5.0
                             Build 20211109_000000

This software has been approved for release by the U.S. Geological 
Survey (USGS). Although the software has been subjected to rigorous 
review, the USGS reserves the right to update the software as needed 
pursuant to further analysis and review. No warranty, expressed or 
implied, is made by the USGS or the U.S. Government as to the 
functionality of the software and related material nor shall the 
fact of release constitute any such warranty. Furthermore, the 
software is released on condition that neither the USGS nor the U.S. 
Government shall be held liable for any damages resulting from its 
authorized or unauthorized use. Also refer to the USGS Water 
Resources Software User Rights Notice for complete use, copyright, 
and distribution information.


As a work of the United States Government, this USGS product is 
in the public domain within the United States. You can copy, 
modify, distribute, and perform the work, even for commercial 
purposes, all without asking permission. Additionally, USGS 
waives copyright and related rights in the work worldwide 
through CC0 1.0 Universal Public Domain Dedication 
(https://creativecommons.org/publicdomain/zero/1.0/).

The following GNU Lesser General Public License (LGPL) libraries
are used in this USGS product:

    SPARSKIT version 2.0
      ilut, luson, and qsplit 
      (https://www-users.cse.umn.edu/~saad/software/SPARSKIT/)

    RCM - Reverse Cuthill McKee Ordering
      (https://people.math.sc.edu/Burkardt/f_src/rcm/rcm.html)

    BLAS - Basic Linear Algebra Subprograms Level 1
      (https://people.math.sc.edu/Burkardt/f_src/blas1_d/blas1_d.html)

    SPARSEKIT - Sparse Matrix Utility Package
      amux, dperm, dvperm, rperm, and cperm
      (https://people.sc.fsu.edu/~jburkardt/f77_src/sparsekit/sparsekit.html)

The following BSD-3 License libraries are used in this USGS product:

    Modern Fortran DAG Library
      Copyright (c) 2018, Jacob Williams
      All rights reserved.
      (https://github.com/jacobwilliams/daglib)

MODFLOW 6 compiler options: /Isrc\libmf6core.a.p /Isrc /I..\src
/Isrc\libmf6_external.a.p /MTd /nologo /warn:general /warn:truncated_source
/stand:f08 /Zi /traceback /O2 /Zi /fpe:0 /fpp /Qdiag-disable:7416
/Qdiag-disable:7025 /Qdiag-disable:5268
/Fdsrc\libmf6core.a.p\Utilities_compilerversion.F90.pdb
/module:src\libmf6core.a.p
/Fosrc/libmf6core.a.p/Utilities_compilerversion.F90.obj /c

System command used to initiate simulation:
..\..\bin\mf6.exe

MODFLOW was compiled using uniform precision.

Real Variables
  KIND: 8
  TINY (smallest non-zero value):    2.225074-308
  HUGE (largest value):    1.797693+308
  PRECISION: 15
  BIT SIZE: 64

Integer Variables
  KIND: 4
  HUGE (largest value): 2147483647
  BIT SIZE: 32

Long Integer Variables
  KIND: 8
  HUGE (largest value): 9223372036854775807
  BIT SIZE: 64

Logical Variables
  KIND: 4
  BIT SIZE: 32
 

 OPENED .\ex-gwf-csub-p04.dis
 FILE TYPE:DIS6                   UNIT 1005   STATUS:OLD                 
 FORMAT:FORMATTED              ACCESS:SEQUENTIAL          
 ACTION:READ                


 OPENED .\ex-gwf-csub-p04.obs
 FILE TYPE:OBS6                   UNIT 1006   STATUS:OLD                 
 FORMAT:FORMATTED              ACCESS:SEQUENTIAL          
 ACTION:READ                


 OPENED .\ex-gwf-csub-p04.ic
 FILE TYPE:IC6                    UNIT 1007   STATUS:OLD                 
 FORMAT:FORMATTED              ACCESS:SEQUENTIAL          
 ACTION:READ                


 OPENED .\ex-gwf-csub-p04.npf
 FILE TYPE:NPF6                   UNIT 1008   STATUS:OLD                 
 FORMAT:FORMATTED              ACCESS:SEQUENTIAL          
 ACTION:READ                


 OPENED .\ex-gwf-csub-p04.sto
 FILE TYPE:STO6                   UNIT 1009   STATUS:OLD                 
 FORMAT:FORMATTED              ACCESS:SEQUENTIAL          
 ACTION:READ                


 OPENED .\ex-gwf-csub-p04.csub
 FILE TYPE:CSUB6                  UNIT 1010   STATUS:OLD                 
 FORMAT:FORMATTED              ACCESS:SEQUENTIAL          
 ACTION:READ                


 OPENED .\ex-gwf-csub-p04.chd
 FILE TYPE:CHD6                   UNIT 1011   STATUS:OLD                 
 FORMAT:FORMATTED              ACCESS:SEQUENTIAL          
 ACTION:READ                


 OPENED .\ex-gwf-csub-p04.rch
 FILE TYPE:RCH6                   UNIT 1012   STATUS:OLD                 
 FORMAT:FORMATTED              ACCESS:SEQUENTIAL          
 ACTION:READ                


 OPENED .\ex-gwf-csub-p04.wel
 FILE TYPE:WEL6                   UNIT 1013   STATUS:OLD                 
 FORMAT:FORMATTED              ACCESS:SEQUENTIAL          
 ACTION:READ                


 OPENED .\ex-gwf-csub-p04.oc
 FILE TYPE:OC6                    UNIT 1014   STATUS:OLD                 
 FORMAT:FORMATTED              ACCESS:SEQUENTIAL          
 ACTION:READ                

 NAMEFILE OPTIONS:
    FLOWS WILL BE SAVED TO BUDGET FILE SPECIFIED IN OUTPUT CONTROL
    NEWTON-RAPHSON method enabled for the model.

 DIS -- STRUCTURED GRID DISCRETIZATION PACKAGE, VERSION 2 : 3/27/2014 - INPUT READ FROM UNIT 1005


 # File generated by Flopy version 3.3.5 on 03/04/2022 at 11:13:53.
 PROCESSING DISCRETIZATION OPTIONS
    MODEL LENGTH UNIT IS METERS
 END OF DISCRETIZATION OPTIONS
 PROCESSING DISCRETIZATION DIMENSIONS
    NLAY =       4
    NROW =      20
    NCOL =      15
 END OF DISCRETIZATION DIMENSIONS
 PROCESSING GRIDDATA

                     DELR =   2000.000    

                     DELC =   2000.000    

 TOP ELEVATION OF LAYER 1 =   150.0000    

   MODEL LAYER BOTTOM EL. =   50.00000     FOR LAYER 1

   MODEL LAYER BOTTOM EL. =  -100.0000     FOR LAYER 2

   MODEL LAYER BOTTOM EL. =  -150.0000     FOR LAYER 3

   MODEL LAYER BOTTOM EL. =  -350.0000     FOR LAYER 4
 END PROCESSING GRIDDATA

 THE SPECIFIED IDOMAIN RESULTS IN A REDUCED NUMBER OF CELLS.
 NUMBER OF USER NODES: 1200
 NUMBER OF NODES IN SOLUTION: 848



 NPF -- NODE PROPERTY FLOW PACKAGE, VERSION 1, 3/30/2015 INPUT READ FROM UNIT 1008


 # File generated by Flopy version 3.3.5 on 03/04/2022 at 11:13:53.
 PROCESSING NPF OPTIONS
    SPECIFIC DISCHARGE WILL BE CALCULATED AT CELL CENTERS AND WRITTEN TO DATA-SPDIS IN BUDGET FILE WHEN REQUESTED.
 END OF NPF OPTIONS

 WEL   -- WEL PACKAGE, VERSION 8, 2/22/2014 INPUT READ FROM UNIT 1013
 # File generated by Flopy version 3.3.5 on 03/04/2022 at 11:13:53.

 PROCESSING WEL OPTIONS
 END OF WEL OPTIONS

 PROCESSING WEL DIMENSIONS
    MAXBOUND =       2
 END OF WEL DIMENSIONS

 RCH   -- RCH PACKAGE, VERSION 8, 2/22/2014 INPUT READ FROM UNIT 1012
 # File generated by Flopy version 3.3.5 on 03/04/2022 at 11:13:53.

 PROCESSING RCH OPTIONS
 END OF RCH OPTIONS

 PROCESSING RCH DIMENSIONS
    MAXBOUND =      18
 END OF RCH DIMENSIONS

 CHD   -- CHD PACKAGE, VERSION 8, 2/22/2014 INPUT READ FROM UNIT 1011
 # File generated by Flopy version 3.3.5 on 03/04/2022 at 11:13:53.

 PROCESSING CHD OPTIONS
 END OF CHD OPTIONS

 PROCESSING CHD DIMENSIONS
    MAXBOUND =       8
 END OF CHD DIMENSIONS

 IC -- INITIAL CONDITIONS PACKAGE, VERSION 8, 3/28/2015 INPUT READ FROM UNIT 1007
 # File generated by Flopy version 3.3.5 on 03/04/2022 at 11:13:53.
 PROCESSING GRIDDATA

     INITIAL HEAD =   100.0000    
 END PROCESSING GRIDDATA
 PROCESSING GRIDDATA

                ICELLTYPE = 1 FOR LAYER 1

                ICELLTYPE = 0 FOR LAYER 2

                ICELLTYPE = 0 FOR LAYER 3

                ICELLTYPE = 0 FOR LAYER 4

                        K =   4.000000     FOR LAYER 1

                        K =   4.000000     FOR LAYER 2

                        K =  0.1000000E-01 FOR LAYER 3

                        K =   4.000000     FOR LAYER 4
 K33 not provided.  Assuming K33 = K.
 K22 not provided.  Assuming K22 = K.
 END PROCESSING GRIDDATA

 STO -- STORAGE PACKAGE, VERSION 1, 5/19/2014 INPUT READ FROM UNIT 1009


 # File generated by Flopy version 3.3.5 on 03/04/2022 at 11:13:53.
 PROCESSING STORAGE OPTIONS
 END OF STORAGE OPTIONS
 PROCESSING GRIDDATA

                 ICONVERT = 1 FOR LAYER 1

                 ICONVERT = 0 FOR LAYER 2

                 ICONVERT = 0 FOR LAYER 3

                 ICONVERT = 0 FOR LAYER 4

         SPECIFIC STORAGE =   0.000000    

           SPECIFIC YIELD =  0.3000000     FOR LAYER 1

           SPECIFIC YIELD =  0.3000000     FOR LAYER 2

           SPECIFIC YIELD =  0.4000000     FOR LAYER 3

           SPECIFIC YIELD =  0.3000000     FOR LAYER 4
 END PROCESSING GRIDDATA

 CSUB -- COMPACTION PACKAGE, VERSION 1, 12/15/2019 INPUT READ FROM UNIT 1010


 # File generated by Flopy version 3.3.5 on 03/04/2022 at 11:13:53.
 PROCESSING CSUB OPTIONS
    CSUB BOUNDARIES HAVE NAMES IN LAST COLUMN.
    LISTS OF CSUB CELLS WILL BE PRINTED.
    FLOWS WILL BE SAVED TO BUDGET FILE SPECIFIED IN OUTPUT CONTROL

 OPENED ex-gwf-csub-p04.csub.obs
 FILE TYPE:OBS   UNIT 1016   STATUS:OLD                 
 FORMAT:FORMATTED              ACCESS:SEQUENTIAL          
 ACTION:READ                

 END OF CSUB OPTIONS


 CSUB PACKAGE SETTINGS
    NUMBER OF DELAY CELLS = 19
    EFFECTIVE-STRESS FORMULATION
    COMPRESSION INDICES WILL BE SPECIFIED INSTEAD OF ELASTIC AND
      INELASTIC SPECIFIC STORAGE COEFFICIENTS
    THICKNESS AND VOID RATIO WILL BE ADJUSTED DURING THE SIMULATION
    INTERBED THICKNESS WILL BE SPECIFIED AS A THICKNESS
    PRECONSOLIDATION STRESS WILL BE SPECIFIED RELATIVE TO INITIAL
      STRESS CONDITIONS
    DELAY INTERBED HEADS WILL BE SPECIFIED RELATIVE TO INITIAL 
      GWF HEADS
    SPECIFIC STORAGE VALUES WILL BE CALCULATED USING THE CURRENT
      EFFECTIVE STRESS
    GAMMAW        = 9806.650000000000
    BETA          = .4661200000000000E-09
    GAMMAW * BETA = .4571075698000000E-05

 PROCESSING CSUB DIMENSIONS
    NINTERBEDS = 840
 END OF CSUB DIMENSIONS

The observation utility is active for "CSUB"
 # File generated by Flopy version 3.3.5 on 03/04/2022 at 11:13:53.

Processing observation options:

Text output number of digits of precision set to: 10
The PRINT_INPUT option has been specified.


 OBSERVATIONS READ FROM FILE "ex-gwf-csub-p04.csub.obs"
 ----------------------------------------------------------------------------------------------------------------------------------------------------------------------------------------------------------------------------
 NAME                                     TYPE                                       TIME         LOCATION DATA                              OUTPUT FILENAME                                                                 
 ----------------------------------------------------------------------------------------------------------------------------------------------------------------------------------------------------------------------------
 W1L1                                     CONTINUOUS  INTERBED-COMPACTION            ALL TIMES    "  01_09_10"                               ex-gwf-csub-p04.csub.obs.csv                                                    
 W1L2                                     CONTINUOUS  INTERBED-COMPACTION            ALL TIMES    "  02_09_10"                               ex-gwf-csub-p04.csub.obs.csv                                                    
 W1L3                                     CONTINUOUS  INTERBED-COMPACTION            ALL TIMES    "  03_09_10"                               ex-gwf-csub-p04.csub.obs.csv                                                    
 W1L4                                     CONTINUOUS  INTERBED-COMPACTION            ALL TIMES    "  04_09_10"                               ex-gwf-csub-p04.csub.obs.csv                                                    
 W2L1                                     CONTINUOUS  INTERBED-COMPACTION            ALL TIMES    "  01_12_07"                               ex-gwf-csub-p04.csub.obs.csv                                                    
 W2L2                                     CONTINUOUS  INTERBED-COMPACTION            ALL TIMES    "  02_12_07"                               ex-gwf-csub-p04.csub.obs.csv                                                    
 W2L3                                     CONTINUOUS  INTERBED-COMPACTION            ALL TIMES    "  03_12_07"                               ex-gwf-csub-p04.csub.obs.csv                                                    
 W2L4                                     CONTINUOUS  INTERBED-COMPACTION            ALL TIMES    "  04_12_07"                               ex-gwf-csub-p04.csub.obs.csv                                                    
 S1L1                                     CONTINUOUS  COARSE-COMPACTION              ALL TIMES    "  1 9 10"                                 ex-gwf-csub-p04.csub.obs.csv                                                    
 S1L2                                     CONTINUOUS  COARSE-COMPACTION              ALL TIMES    "  2 9 10"                                 ex-gwf-csub-p04.csub.obs.csv                                                    
 S1L3                                     CONTINUOUS  COARSE-COMPACTION              ALL TIMES    "  3 9 10"                                 ex-gwf-csub-p04.csub.obs.csv                                                    
 S1L4                                     CONTINUOUS  COARSE-COMPACTION              ALL TIMES    "  4 9 10"                                 ex-gwf-csub-p04.csub.obs.csv                                                    
 S2L1                                     CONTINUOUS  COARSE-COMPACTION              ALL TIMES    "  1 12 7"                                 ex-gwf-csub-p04.csub.obs.csv                                                    
 S2L2                                     CONTINUOUS  COARSE-COMPACTION              ALL TIMES    "  2 12 7"                                 ex-gwf-csub-p04.csub.obs.csv                                                    
 S2L3                                     CONTINUOUS  COARSE-COMPACTION              ALL TIMES    "  3 12 7"                                 ex-gwf-csub-p04.csub.obs.csv                                                    
 S2L4                                     CONTINUOUS  COARSE-COMPACTION              ALL TIMES    "  4 12 7"                                 ex-gwf-csub-p04.csub.obs.csv                                                    
 C1L1                                     CONTINUOUS  COMPACTION-CELL                ALL TIMES    "  1 9 10"                                 ex-gwf-csub-p04.csub.obs.csv                                                    
 C1L2                                     CONTINUOUS  COMPACTION-CELL                ALL TIMES    "  2 9 10"                                 ex-gwf-csub-p04.csub.obs.csv                                                    
 C1L3                                     CONTINUOUS  COMPACTION-CELL                ALL TIMES    "  3 9 10"                                 ex-gwf-csub-p04.csub.obs.csv                                                    
 C1L4                                     CONTINUOUS  COMPACTION-CELL                ALL TIMES    "  4 9 10"                                 ex-gwf-csub-p04.csub.obs.csv                                                    
 C2L1                                     CONTINUOUS  COMPACTION-CELL                ALL TIMES    "  1 12 7"                                 ex-gwf-csub-p04.csub.obs.csv                                                    
 C2L2                                     CONTINUOUS  COMPACTION-CELL                ALL TIMES    "  2 12 7"                                 ex-gwf-csub-p04.csub.obs.csv                                                    
 C2L3                                     CONTINUOUS  COMPACTION-CELL                ALL TIMES    "  3 12 7"                                 ex-gwf-csub-p04.csub.obs.csv                                                    
 C2L4                                     CONTINUOUS  COMPACTION-CELL                ALL TIMES    "  4 12 7"                                 ex-gwf-csub-p04.csub.obs.csv                                                    
 W2L4Q                                    CONTINUOUS  CSUB-CELL                      ALL TIMES    "  4 12 7"                                 ex-gwf-csub-p04.csub.obs.csv                                                    
 GS1                                      CONTINUOUS  GSTRESS-CELL                   ALL TIMES    "  1 9 10"                                 ex-gwf-csub-p04.csub.obs.csv                                                    
 ES1                                      CONTINUOUS  ESTRESS-CELL                   ALL TIMES    "  1 9 10"                                 ex-gwf-csub-p04.csub.obs.csv                                                    
 PC1                                      CONTINUOUS  PRECONSTRESS-CELL              ALL TIMES    "  1 9 10"                                 ex-gwf-csub-p04.csub.obs.csv                                                    
 GS2                                      CONTINUOUS  GSTRESS-CELL                   ALL TIMES    "  2 9 10"                                 ex-gwf-csub-p04.csub.obs.csv                                                    
 ES2                                      CONTINUOUS  ESTRESS-CELL                   ALL TIMES    "  2 9 10"                                 ex-gwf-csub-p04.csub.obs.csv                                                    
 PC2                                      CONTINUOUS  PRECONSTRESS-CELL              ALL TIMES    "  2 9 10"                                 ex-gwf-csub-p04.csub.obs.csv                                                    
 GS3                                      CONTINUOUS  GSTRESS-CELL                   ALL TIMES    "  3 9 10"                                 ex-gwf-csub-p04.csub.obs.csv                                                    
 ES3                                      CONTINUOUS  ESTRESS-CELL                   ALL TIMES    "  3 9 10"                                 ex-gwf-csub-p04.csub.obs.csv                                                    
 PC3                                      CONTINUOUS  PRECONSTRESS-CELL              ALL TIMES    "  3 9 10"                                 ex-gwf-csub-p04.csub.obs.csv                                                    
 GS4                                      CONTINUOUS  GSTRESS-CELL                   ALL TIMES    "  4 9 10"                                 ex-gwf-csub-p04.csub.obs.csv                                                    
 ES4                                      CONTINUOUS  ESTRESS-CELL                   ALL TIMES    "  4 9 10"                                 ex-gwf-csub-p04.csub.obs.csv                                                    
 PC4                                      CONTINUOUS  PRECONSTRESS-CELL              ALL TIMES    "  4 9 10"                                 ex-gwf-csub-p04.csub.obs.csv                                                    
 SK1L2                                    CONTINUOUS  SKE-CELL                       ALL TIMES    "  2 9 10"                                 ex-gwf-csub-p04.csub.obs.csv                                                    
 SK2L4                                    CONTINUOUS  SKE-CELL                       ALL TIMES    "  4 12 7"                                 ex-gwf-csub-p04.csub.obs.csv                                                    
 T1L2                                     CONTINUOUS  THETA                          ALL TIMES    "  02_09_10"                               ex-gwf-csub-p04.csub.obs.csv                                                    
 W1QIE                                    CONTINUOUS  ELASTIC-CSUB                   ALL TIMES    "  02_09_10"                               ex-gwf-csub-p04.csub.obs.csv                                                    
 W1QII                                    CONTINUOUS  INELASTIC-CSUB                 ALL TIMES    "  02_09_10"                               ex-gwf-csub-p04.csub.obs.csv                                                    
 W1QAQ                                    CONTINUOUS  COARSE-CSUB                    ALL TIMES    "  2 9 10"                                 ex-gwf-csub-p04.csub.obs.csv                                                    
 W1QT                                     CONTINUOUS  CSUB-CELL                      ALL TIMES    "  2 9 10"                                 ex-gwf-csub-p04.csub.obs.csv                                                    
 W1WC                                     CONTINUOUS  WCOMP-CSUB-CELL                ALL TIMES    "  2 9 10"                                 ex-gwf-csub-p04.csub.obs.csv                                                    
 W2QIE                                    CONTINUOUS  ELASTIC-CSUB                   ALL TIMES    "  04_12_07"                               ex-gwf-csub-p04.csub.obs.csv                                                    
 W2QII                                    CONTINUOUS  INELASTIC-CSUB                 ALL TIMES    "  04_12_07"                               ex-gwf-csub-p04.csub.obs.csv                                                    
 W2QAQ                                    CONTINUOUS  COARSE-CSUB                    ALL TIMES    "  4 12 7"                                 ex-gwf-csub-p04.csub.obs.csv                                                    
 W2QT                                     CONTINUOUS  CSUB-CELL                      ALL TIMES    "  4 12 7"                                 ex-gwf-csub-p04.csub.obs.csv                                                    
 W2WC                                     CONTINUOUS  WCOMP-CSUB-CELL                ALL TIMES    "  4 12 7"                                 ex-gwf-csub-p04.csub.obs.csv                                                    
 ----------------------------------------------------------------------------------------------------------------------------------------------------------------------------------------------------------------------------



 CG_SKE_CR =  0.5000000E-02 FOR LAYER 1

 CG_SKE_CR =  0.5000000E-02 FOR LAYER 2

 CG_SKE_CR =  0.1000000E-01 FOR LAYER 3

 CG_SKE_CR =  0.5000000E-02 FOR LAYER 4

 CG_THETA =  0.3200000     FOR LAYER 1

 CG_THETA =  0.3200000     FOR LAYER 2

 CG_THETA =  0.4500000     FOR LAYER 3

 CG_THETA =  0.3200000     FOR LAYER 4

 SGM =   1.770000     FOR LAYER 1

 SGM =   1.770000     FOR LAYER 2

 SGM =   1.600000     FOR LAYER 3

 SGM =   1.770000     FOR LAYER 4

 SGS =   2.060000     FOR LAYER 1

 SGS =   2.050000     FOR LAYER 2

 SGS =   1.940000     FOR LAYER 3

 SGS =   2.060000     FOR LAYER 4

 PROCESSING CSUB PACKAGEDATA
 END OF CSUB PACKAGEDATA

 CSUB PACKAGE INTERBED DATA
 ---------------------------------------------------------------------------------------------------------------------------------------------------------------------------
 INTERBED          CELLID          CDELAY      PCS       THICK       RNB       SSV_CC     SSV_CR     THETA        KV         H0     BOUNDNAME                               
 ---------------------------------------------------------------------------------------------------------------------------------------------------------------------------
 1                (1,1,6)         NODELAY    15.0       45.0       1.00       0.250      1.000E-02  0.450         -          -      01_01_06                                
 2                (2,1,6)         NODELAY    15.0       70.0       1.00       0.250      1.000E-02  0.450         -          -      02_01_06                                
 3                (3,1,6)         NODELAY    15.0       50.0       1.00       0.250      1.000E-02  0.450         -          -      03_01_06                                
 4                (4,1,6)         NODELAY    15.0       90.0       1.00       0.250      1.000E-02  0.450         -          -      04_01_06                                
 5                (1,1,7)         NODELAY    15.0       45.0       1.00       0.250      1.000E-02  0.450         -          -      01_01_07                                
 6                (2,1,7)         NODELAY    15.0       70.0       1.00       0.250      1.000E-02  0.450         -          -      02_01_07                                
 7                (3,1,7)         NODELAY    15.0       50.0       1.00       0.250      1.000E-02  0.450         -          -      03_01_07                                
 8                (4,1,7)         NODELAY    15.0       90.0       1.00       0.250      1.000E-02  0.450         -          -      04_01_07                                
 9                (1,1,8)         NODELAY    15.0       45.0       1.00       0.250      1.000E-02  0.450         -          -      01_01_08                                
 10               (2,1,8)         NODELAY    15.0       70.0       1.00       0.250      1.000E-02  0.450         -          -      02_01_08                                
 11               (3,1,8)         NODELAY    15.0       50.0       1.00       0.250      1.000E-02  0.450         -          -      03_01_08                                
 12               (4,1,8)         NODELAY    15.0       90.0       1.00       0.250      1.000E-02  0.450         -          -      04_01_08                                
 13               (1,1,9)         NODELAY    15.0       45.0       1.00       0.250      1.000E-02  0.450         -          -      01_01_09                                
 14               (2,1,9)         NODELAY    15.0       70.0       1.00       0.250      1.000E-02  0.450         -          -      02_01_09                                
 15               (3,1,9)         NODELAY    15.0       50.0       1.00       0.250      1.000E-02  0.450         -          -      03_01_09                                
 16               (4,1,9)         NODELAY    15.0       90.0       1.00       0.250      1.000E-02  0.450         -          -      04_01_09                                
 17               (1,1,10)        NODELAY    15.0       45.0       1.00       0.250      1.000E-02  0.450         -          -      01_01_10                                
 18               (2,1,10)        NODELAY    15.0       70.0       1.00       0.250      1.000E-02  0.450         -          -      02_01_10                                
 19               (3,1,10)        NODELAY    15.0       50.0       1.00       0.250      1.000E-02  0.450         -          -      03_01_10                                
 20               (4,1,10)        NODELAY    15.0       90.0       1.00       0.250      1.000E-02  0.450         -          -      04_01_10                                
 21               (1,2,5)         NODELAY    15.0       45.0       1.00       0.250      1.000E-02  0.450         -          -      01_02_05                                
 22               (2,2,5)         NODELAY    15.0       70.0       1.00       0.250      1.000E-02  0.450         -          -      02_02_05                                
 23               (3,2,5)         NODELAY    15.0       50.0       1.00       0.250      1.000E-02  0.450         -          -      03_02_05                                
 24               (4,2,5)         NODELAY    15.0       90.0       1.00       0.250      1.000E-02  0.450         -          -      04_02_05                                
 25               (1,2,6)         NODELAY    15.0       45.0       1.00       0.250      1.000E-02  0.450         -          -      01_02_06                                
 26               (2,2,6)         NODELAY    15.0       70.0       1.00       0.250      1.000E-02  0.450         -          -      02_02_06                                
 27               (3,2,6)         NODELAY    15.0       50.0       1.00       0.250      1.000E-02  0.450         -          -      03_02_06                                
 28               (4,2,6)         NODELAY    15.0       90.0       1.00       0.250      1.000E-02  0.450         -          -      04_02_06                                
 29               (1,2,7)         NODELAY    15.0       45.0       1.00       0.250      1.000E-02  0.450         -          -      01_02_07                                
 30               (2,2,7)         NODELAY    15.0       70.0       1.00       0.250      1.000E-02  0.450         -          -      02_02_07                                
 31               (3,2,7)         NODELAY    15.0       50.0       1.00       0.250      1.000E-02  0.450         -          -      03_02_07                                
 32               (4,2,7)         NODELAY    15.0       90.0       1.00       0.250      1.000E-02  0.450         -          -      04_02_07                                
 33               (1,2,8)         NODELAY    15.0       45.0       1.00       0.250      1.000E-02  0.450         -          -      01_02_08                                
 34               (2,2,8)         NODELAY    15.0       70.0       1.00       0.250      1.000E-02  0.450         -          -      02_02_08                                
 35               (3,2,8)         NODELAY    15.0       50.0       1.00       0.250      1.000E-02  0.450         -          -      03_02_08                                
 36               (4,2,8)         NODELAY    15.0       90.0       1.00       0.250      1.000E-02  0.450         -          -      04_02_08                                
 37               (1,2,9)         NODELAY    15.0       45.0       1.00       0.250      1.000E-02  0.450         -          -      01_02_09                                
 38               (2,2,9)         NODELAY    15.0       70.0       1.00       0.250      1.000E-02  0.450         -          -      02_02_09                                
 39               (3,2,9)         NODELAY    15.0       50.0       1.00       0.250      1.000E-02  0.450         -          -      03_02_09                                
 40               (4,2,9)         NODELAY    15.0       90.0       1.00       0.250      1.000E-02  0.450         -          -      04_02_09                                
 41               (1,2,10)        NODELAY    15.0       45.0       1.00       0.250      1.000E-02  0.450         -          -      01_02_10                                
 42               (2,2,10)        NODELAY    15.0       70.0       1.00       0.250      1.000E-02  0.450         -          -      02_02_10                                
 43               (3,2,10)        NODELAY    15.0       50.0       1.00       0.250      1.000E-02  0.450         -          -      03_02_10                                
 44               (4,2,10)        NODELAY    15.0       90.0       1.00       0.250      1.000E-02  0.450         -          -      04_02_10                                
 45               (1,2,11)        NODELAY    15.0       45.0       1.00       0.250      1.000E-02  0.450         -          -      01_02_11                                
 46               (2,2,11)        NODELAY    15.0       70.0       1.00       0.250      1.000E-02  0.450         -          -      02_02_11                                
 47               (3,2,11)        NODELAY    15.0       50.0       1.00       0.250      1.000E-02  0.450         -          -      03_02_11                                
 48               (4,2,11)        NODELAY    15.0       90.0       1.00       0.250      1.000E-02  0.450         -          -      04_02_11                                
 49               (1,2,12)        NODELAY    15.0       45.0       1.00       0.250      1.000E-02  0.450         -          -      01_02_12                                
 50               (2,2,12)        NODELAY    15.0       70.0       1.00       0.250      1.000E-02  0.450         -          -      02_02_12                                
 51               (3,2,12)        NODELAY    15.0       50.0       1.00       0.250      1.000E-02  0.450         -          -      03_02_12                                
 52               (4,2,12)        NODELAY    15.0       90.0       1.00       0.250      1.000E-02  0.450         -          -      04_02_12                                
 53               (1,3,4)         NODELAY    15.0       45.0       1.00       0.250      1.000E-02  0.450         -          -      01_03_04                                
 54               (2,3,4)         NODELAY    15.0       70.0       1.00       0.250      1.000E-02  0.450         -          -      02_03_04                                
 55               (3,3,4)         NODELAY    15.0       50.0       1.00       0.250      1.000E-02  0.450         -          -      03_03_04                                
 56               (4,3,4)         NODELAY    15.0       90.0       1.00       0.250      1.000E-02  0.450         -          -      04_03_04                                
 57               (1,3,5)         NODELAY    15.0       45.0       1.00       0.250      1.000E-02  0.450         -          -      01_03_05                                
 58               (2,3,5)         NODELAY    15.0       70.0       1.00       0.250      1.000E-02  0.450         -          -      02_03_05                                
 59               (3,3,5)         NODELAY    15.0       50.0       1.00       0.250      1.000E-02  0.450         -          -      03_03_05                                
 60               (4,3,5)         NODELAY    15.0       90.0       1.00       0.250      1.000E-02  0.450         -          -      04_03_05                                
 61               (1,3,6)         NODELAY    15.0       45.0       1.00       0.250      1.000E-02  0.450         -          -      01_03_06                                
 62               (2,3,6)         NODELAY    15.0       70.0       1.00       0.250      1.000E-02  0.450         -          -      02_03_06                                
 63               (3,3,6)         NODELAY    15.0       50.0       1.00       0.250      1.000E-02  0.450         -          -      03_03_06                                
 64               (4,3,6)         NODELAY    15.0       90.0       1.00       0.250      1.000E-02  0.450         -          -      04_03_06                                
 65               (1,3,7)         NODELAY    15.0       45.0       1.00       0.250      1.000E-02  0.450         -          -      01_03_07                                
 66               (2,3,7)         NODELAY    15.0       70.0       1.00       0.250      1.000E-02  0.450         -          -      02_03_07                                
 67               (3,3,7)         NODELAY    15.0       50.0       1.00       0.250      1.000E-02  0.450         -          -      03_03_07                                
 68               (4,3,7)         NODELAY    15.0       90.0       1.00       0.250      1.000E-02  0.450         -          -      04_03_07                                
 69               (1,3,8)         NODELAY    15.0       45.0       1.00       0.250      1.000E-02  0.450         -          -      01_03_08                                
 70               (2,3,8)         NODELAY    15.0       70.0       1.00       0.250      1.000E-02  0.450         -          -      02_03_08                                
 71               (3,3,8)         NODELAY    15.0       50.0       1.00       0.250      1.000E-02  0.450         -          -      03_03_08                                
 72               (4,3,8)         NODELAY    15.0       90.0       1.00       0.250      1.000E-02  0.450         -          -      04_03_08                                
 73               (1,3,9)         NODELAY    15.0       45.0       1.00       0.250      1.000E-02  0.450         -          -      01_03_09                                
 74               (2,3,9)         NODELAY    15.0       70.0       1.00       0.250      1.000E-02  0.450         -          -      02_03_09                                
 75               (3,3,9)         NODELAY    15.0       50.0       1.00       0.250      1.000E-02  0.450         -          -      03_03_09                                
 76               (4,3,9)         NODELAY    15.0       90.0       1.00       0.250      1.000E-02  0.450         -          -      04_03_09                                
 77               (1,3,10)        NODELAY    15.0       45.0       1.00       0.250      1.000E-02  0.450         -          -      01_03_10                                
 78               (2,3,10)        NODELAY    15.0       70.0       1.00       0.250      1.000E-02  0.450         -          -      02_03_10                                
 79               (3,3,10)        NODELAY    15.0       50.0       1.00       0.250      1.000E-02  0.450         -          -      03_03_10                                
 80               (4,3,10)        NODELAY    15.0       90.0       1.00       0.250      1.000E-02  0.450         -          -      04_03_10                                
 81               (1,3,11)        NODELAY    15.0       45.0       1.00       0.250      1.000E-02  0.450         -          -      01_03_11                                
 82               (2,3,11)        NODELAY    15.0       70.0       1.00       0.250      1.000E-02  0.450         -          -      02_03_11                                
 83               (3,3,11)        NODELAY    15.0       50.0       1.00       0.250      1.000E-02  0.450         -          -      03_03_11                                
 84               (4,3,11)        NODELAY    15.0       90.0       1.00       0.250      1.000E-02  0.450         -          -      04_03_11                                
 85               (1,3,12)        NODELAY    15.0       45.0       1.00       0.250      1.000E-02  0.450         -          -      01_03_12                                
 86               (2,3,12)        NODELAY    15.0       70.0       1.00       0.250      1.000E-02  0.450         -          -      02_03_12                                
 87               (3,3,12)        NODELAY    15.0       50.0       1.00       0.250      1.000E-02  0.450         -          -      03_03_12                                
 88               (4,3,12)        NODELAY    15.0       90.0       1.00       0.250      1.000E-02  0.450         -          -      04_03_12                                
 89               (1,4,4)         NODELAY    15.0       45.0       1.00       0.250      1.000E-02  0.450         -          -      01_04_04                                
 90               (2,4,4)         NODELAY    15.0       70.0       1.00       0.250      1.000E-02  0.450         -          -      02_04_04                                
 91               (3,4,4)         NODELAY    15.0       50.0       1.00       0.250      1.000E-02  0.450         -          -      03_04_04                                
 92               (4,4,4)         NODELAY    15.0       90.0       1.00       0.250      1.000E-02  0.450         -          -      04_04_04                                
 93               (1,4,5)         NODELAY    15.0       45.0       1.00       0.250      1.000E-02  0.450         -          -      01_04_05                                
 94               (2,4,5)         NODELAY    15.0       70.0       1.00       0.250      1.000E-02  0.450         -          -      02_04_05                                
 95               (3,4,5)         NODELAY    15.0       50.0       1.00       0.250      1.000E-02  0.450         -          -      03_04_05                                
 96               (4,4,5)         NODELAY    15.0       90.0       1.00       0.250      1.000E-02  0.450         -          -      04_04_05                                
 97               (1,4,6)         NODELAY    15.0       45.0       1.00       0.250      1.000E-02  0.450         -          -      01_04_06                                
 98               (2,4,6)         NODELAY    15.0       70.0       1.00       0.250      1.000E-02  0.450         -          -      02_04_06                                
 99               (3,4,6)         NODELAY    15.0       50.0       1.00       0.250      1.000E-02  0.450         -          -      03_04_06                                
 100              (4,4,6)         NODELAY    15.0       90.0       1.00       0.250      1.000E-02  0.450         -          -      04_04_06                                
 101              (1,4,7)         NODELAY    15.0       45.0       1.00       0.250      1.000E-02  0.450         -          -      01_04_07                                
 102              (2,4,7)         NODELAY    15.0       70.0       1.00       0.250      1.000E-02  0.450         -          -      02_04_07                                
 103              (3,4,7)         NODELAY    15.0       50.0       1.00       0.250      1.000E-02  0.450         -          -      03_04_07                                
 104              (4,4,7)         NODELAY    15.0       90.0       1.00       0.250      1.000E-02  0.450         -          -      04_04_07                                
 105              (1,4,8)         NODELAY    15.0       45.0       1.00       0.250      1.000E-02  0.450         -          -      01_04_08                                
 106              (2,4,8)         NODELAY    15.0       70.0       1.00       0.250      1.000E-02  0.450         -          -      02_04_08                                
 107              (3,4,8)         NODELAY    15.0       50.0       1.00       0.250      1.000E-02  0.450         -          -      03_04_08                                
 108              (4,4,8)         NODELAY    15.0       90.0       1.00       0.250      1.000E-02  0.450         -          -      04_04_08                                
 109              (1,4,9)         NODELAY    15.0       45.0       1.00       0.250      1.000E-02  0.450         -          -      01_04_09                                
 110              (2,4,9)         NODELAY    15.0       70.0       1.00       0.250      1.000E-02  0.450         -          -      02_04_09                                
 111              (3,4,9)         NODELAY    15.0       50.0       1.00       0.250      1.000E-02  0.450         -          -      03_04_09                                
 112              (4,4,9)         NODELAY    15.0       90.0       1.00       0.250      1.000E-02  0.450         -          -      04_04_09                                
 113              (1,4,10)        NODELAY    15.0       45.0       1.00       0.250      1.000E-02  0.450         -          -      01_04_10                                
 114              (2,4,10)        NODELAY    15.0       70.0       1.00       0.250      1.000E-02  0.450         -          -      02_04_10                                
 115              (3,4,10)        NODELAY    15.0       50.0       1.00       0.250      1.000E-02  0.450         -          -      03_04_10                                
 116              (4,4,10)        NODELAY    15.0       90.0       1.00       0.250      1.000E-02  0.450         -          -      04_04_10                                
 117              (1,4,11)        NODELAY    15.0       45.0       1.00       0.250      1.000E-02  0.450         -          -      01_04_11                                
 118              (2,4,11)        NODELAY    15.0       70.0       1.00       0.250      1.000E-02  0.450         -          -      02_04_11                                
 119              (3,4,11)        NODELAY    15.0       50.0       1.00       0.250      1.000E-02  0.450         -          -      03_04_11                                
 120              (4,4,11)        NODELAY    15.0       90.0       1.00       0.250      1.000E-02  0.450         -          -      04_04_11                                
 121              (1,4,12)        NODELAY    15.0       45.0       1.00       0.250      1.000E-02  0.450         -          -      01_04_12                                
 122              (2,4,12)        NODELAY    15.0       70.0       1.00       0.250      1.000E-02  0.450         -          -      02_04_12                                
 123              (3,4,12)        NODELAY    15.0       50.0       1.00       0.250      1.000E-02  0.450         -          -      03_04_12                                
 124              (4,4,12)        NODELAY    15.0       90.0       1.00       0.250      1.000E-02  0.450         -          -      04_04_12                                
 125              (1,5,3)         NODELAY    15.0       45.0       1.00       0.250      1.000E-02  0.450         -          -      01_05_03                                
 126              (2,5,3)         NODELAY    15.0       70.0       1.00       0.250      1.000E-02  0.450         -          -      02_05_03                                
 127              (3,5,3)         NODELAY    15.0       50.0       1.00       0.250      1.000E-02  0.450         -          -      03_05_03                                
 128              (4,5,3)         NODELAY    15.0       90.0       1.00       0.250      1.000E-02  0.450         -          -      04_05_03                                
 129              (1,5,4)         NODELAY    15.0       45.0       1.00       0.250      1.000E-02  0.450         -          -      01_05_04                                
 130              (2,5,4)         NODELAY    15.0       70.0       1.00       0.250      1.000E-02  0.450         -          -      02_05_04                                
 131              (3,5,4)         NODELAY    15.0       50.0       1.00       0.250      1.000E-02  0.450         -          -      03_05_04                                
 132              (4,5,4)         NODELAY    15.0       90.0       1.00       0.250      1.000E-02  0.450         -          -      04_05_04                                
 133              (1,5,5)         NODELAY    15.0       45.0       1.00       0.250      1.000E-02  0.450         -          -      01_05_05                                
 134              (2,5,5)         NODELAY    15.0       70.0       1.00       0.250      1.000E-02  0.450         -          -      02_05_05                                
 135              (3,5,5)         NODELAY    15.0       50.0       1.00       0.250      1.000E-02  0.450         -          -      03_05_05                                
 136              (4,5,5)         NODELAY    15.0       90.0       1.00       0.250      1.000E-02  0.450         -          -      04_05_05                                
 137              (1,5,6)         NODELAY    15.0       45.0       1.00       0.250      1.000E-02  0.450         -          -      01_05_06                                
 138              (2,5,6)         NODELAY    15.0       70.0       1.00       0.250      1.000E-02  0.450         -          -      02_05_06                                
 139              (3,5,6)         NODELAY    15.0       50.0       1.00       0.250      1.000E-02  0.450         -          -      03_05_06                                
 140              (4,5,6)         NODELAY    15.0       90.0       1.00       0.250      1.000E-02  0.450         -          -      04_05_06                                
 141              (1,5,7)         NODELAY    15.0       45.0       1.00       0.250      1.000E-02  0.450         -          -      01_05_07                                
 142              (2,5,7)         NODELAY    15.0       70.0       1.00       0.250      1.000E-02  0.450         -          -      02_05_07                                
 143              (3,5,7)         NODELAY    15.0       50.0       1.00       0.250      1.000E-02  0.450         -          -      03_05_07                                
 144              (4,5,7)         NODELAY    15.0       90.0       1.00       0.250      1.000E-02  0.450         -          -      04_05_07                                
 145              (1,5,8)         NODELAY    15.0       45.0       1.00       0.250      1.000E-02  0.450         -          -      01_05_08                                
 146              (2,5,8)         NODELAY    15.0       70.0       1.00       0.250      1.000E-02  0.450         -          -      02_05_08                                
 147              (3,5,8)         NODELAY    15.0       50.0       1.00       0.250      1.000E-02  0.450         -          -      03_05_08                                
 148              (4,5,8)         NODELAY    15.0       90.0       1.00       0.250      1.000E-02  0.450         -          -      04_05_08                                
 149              (1,5,9)         NODELAY    15.0       45.0       1.00       0.250      1.000E-02  0.450         -          -      01_05_09                                
 150              (2,5,9)         NODELAY    15.0       70.0       1.00       0.250      1.000E-02  0.450         -          -      02_05_09                                
 151              (3,5,9)         NODELAY    15.0       50.0       1.00       0.250      1.000E-02  0.450         -          -      03_05_09                                
 152              (4,5,9)         NODELAY    15.0       90.0       1.00       0.250      1.000E-02  0.450         -          -      04_05_09                                
 153              (1,5,10)        NODELAY    15.0       45.0       1.00       0.250      1.000E-02  0.450         -          -      01_05_10                                
 154              (2,5,10)        NODELAY    15.0       70.0       1.00       0.250      1.000E-02  0.450         -          -      02_05_10                                
 155              (3,5,10)        NODELAY    15.0       50.0       1.00       0.250      1.000E-02  0.450         -          -      03_05_10                                
 156              (4,5,10)        NODELAY    15.0       90.0       1.00       0.250      1.000E-02  0.450         -          -      04_05_10                                
 157              (1,5,11)        NODELAY    15.0       45.0       1.00       0.250      1.000E-02  0.450         -          -      01_05_11                                
 158              (2,5,11)        NODELAY    15.0       70.0       1.00       0.250      1.000E-02  0.450         -          -      02_05_11                                
 159              (3,5,11)        NODELAY    15.0       50.0       1.00       0.250      1.000E-02  0.450         -          -      03_05_11                                
 160              (4,5,11)        NODELAY    15.0       90.0       1.00       0.250      1.000E-02  0.450         -          -      04_05_11                                
 161              (1,5,12)        NODELAY    15.0       45.0       1.00       0.250      1.000E-02  0.450         -          -      01_05_12                                
 162              (2,5,12)        NODELAY    15.0       70.0       1.00       0.250      1.000E-02  0.450         -          -      02_05_12                                
 163              (3,5,12)        NODELAY    15.0       50.0       1.00       0.250      1.000E-02  0.450         -          -      03_05_12                                
 164              (4,5,12)        NODELAY    15.0       90.0       1.00       0.250      1.000E-02  0.450         -          -      04_05_12                                
 165              (1,5,13)        NODELAY    15.0       45.0       1.00       0.250      1.000E-02  0.450         -          -      01_05_13                                
 166              (2,5,13)        NODELAY    15.0       70.0       1.00       0.250      1.000E-02  0.450         -          -      02_05_13                                
 167              (3,5,13)        NODELAY    15.0       50.0       1.00       0.250      1.000E-02  0.450         -          -      03_05_13                                
 168              (4,5,13)        NODELAY    15.0       90.0       1.00       0.250      1.000E-02  0.450         -          -      04_05_13                                
 169              (1,6,3)         NODELAY    15.0       45.0       1.00       0.250      1.000E-02  0.450         -          -      01_06_03                                
 170              (2,6,3)         NODELAY    15.0       70.0       1.00       0.250      1.000E-02  0.450         -          -      02_06_03                                
 171              (3,6,3)         NODELAY    15.0       50.0       1.00       0.250      1.000E-02  0.450         -          -      03_06_03                                
 172              (4,6,3)         NODELAY    15.0       90.0       1.00       0.250      1.000E-02  0.450         -          -      04_06_03                                
 173              (1,6,4)         NODELAY    15.0       45.0       1.00       0.250      1.000E-02  0.450         -          -      01_06_04                                
 174              (2,6,4)         NODELAY    15.0       70.0       1.00       0.250      1.000E-02  0.450         -          -      02_06_04                                
 175              (3,6,4)         NODELAY    15.0       50.0       1.00       0.250      1.000E-02  0.450         -          -      03_06_04                                
 176              (4,6,4)         NODELAY    15.0       90.0       1.00       0.250      1.000E-02  0.450         -          -      04_06_04                                
 177              (1,6,5)         NODELAY    15.0       45.0       1.00       0.250      1.000E-02  0.450         -          -      01_06_05                                
 178              (2,6,5)         NODELAY    15.0       70.0       1.00       0.250      1.000E-02  0.450         -          -      02_06_05                                
 179              (3,6,5)         NODELAY    15.0       50.0       1.00       0.250      1.000E-02  0.450         -          -      03_06_05                                
 180              (4,6,5)         NODELAY    15.0       90.0       1.00       0.250      1.000E-02  0.450         -          -      04_06_05                                
 181              (1,6,6)         NODELAY    15.0       45.0       1.00       0.250      1.000E-02  0.450         -          -      01_06_06                                
 182              (2,6,6)         NODELAY    15.0       70.0       1.00       0.250      1.000E-02  0.450         -          -      02_06_06                                
 183              (3,6,6)         NODELAY    15.0       50.0       1.00       0.250      1.000E-02  0.450         -          -      03_06_06                                
 184              (4,6,6)         NODELAY    15.0       90.0       1.00       0.250      1.000E-02  0.450         -          -      04_06_06                                
 185              (1,6,7)         NODELAY    15.0       45.0       1.00       0.250      1.000E-02  0.450         -          -      01_06_07                                
 186              (2,6,7)         NODELAY    15.0       70.0       1.00       0.250      1.000E-02  0.450         -          -      02_06_07                                
 187              (3,6,7)         NODELAY    15.0       50.0       1.00       0.250      1.000E-02  0.450         -          -      03_06_07                                
 188              (4,6,7)         NODELAY    15.0       90.0       1.00       0.250      1.000E-02  0.450         -          -      04_06_07                                
 189              (1,6,8)         NODELAY    15.0       45.0       1.00       0.250      1.000E-02  0.450         -          -      01_06_08                                
 190              (2,6,8)         NODELAY    15.0       70.0       1.00       0.250      1.000E-02  0.450         -          -      02_06_08                                
 191              (3,6,8)         NODELAY    15.0       50.0       1.00       0.250      1.000E-02  0.450         -          -      03_06_08                                
 192              (4,6,8)         NODELAY    15.0       90.0       1.00       0.250      1.000E-02  0.450         -          -      04_06_08                                
 193              (1,6,9)         NODELAY    15.0       45.0       1.00       0.250      1.000E-02  0.450         -          -      01_06_09                                
 194              (2,6,9)         NODELAY    15.0       70.0       1.00       0.250      1.000E-02  0.450         -          -      02_06_09                                
 195              (3,6,9)         NODELAY    15.0       50.0       1.00       0.250      1.000E-02  0.450         -          -      03_06_09                                
 196              (4,6,9)         NODELAY    15.0       90.0       1.00       0.250      1.000E-02  0.450         -          -      04_06_09                                
 197              (1,6,10)        NODELAY    15.0       45.0       1.00       0.250      1.000E-02  0.450         -          -      01_06_10                                
 198              (2,6,10)        NODELAY    15.0       70.0       1.00       0.250      1.000E-02  0.450         -          -      02_06_10                                
 199              (3,6,10)        NODELAY    15.0       50.0       1.00       0.250      1.000E-02  0.450         -          -      03_06_10                                
 200              (4,6,10)        NODELAY    15.0       90.0       1.00       0.250      1.000E-02  0.450         -          -      04_06_10                                
 201              (1,6,11)        NODELAY    15.0       45.0       1.00       0.250      1.000E-02  0.450         -          -      01_06_11                                
 202              (2,6,11)        NODELAY    15.0       70.0       1.00       0.250      1.000E-02  0.450         -          -      02_06_11                                
 203              (3,6,11)        NODELAY    15.0       50.0       1.00       0.250      1.000E-02  0.450         -          -      03_06_11                                
 204              (4,6,11)        NODELAY    15.0       90.0       1.00       0.250      1.000E-02  0.450         -          -      04_06_11                                
 205              (1,6,12)        NODELAY    15.0       45.0       1.00       0.250      1.000E-02  0.450         -          -      01_06_12                                
 206              (2,6,12)        NODELAY    15.0       70.0       1.00       0.250      1.000E-02  0.450         -          -      02_06_12                                
 207              (3,6,12)        NODELAY    15.0       50.0       1.00       0.250      1.000E-02  0.450         -          -      03_06_12                                
 208              (4,6,12)        NODELAY    15.0       90.0       1.00       0.250      1.000E-02  0.450         -          -      04_06_12                                
 209              (1,6,13)        NODELAY    15.0       45.0       1.00       0.250      1.000E-02  0.450         -          -      01_06_13                                
 210              (2,6,13)        NODELAY    15.0       70.0       1.00       0.250      1.000E-02  0.450         -          -      02_06_13                                
 211              (3,6,13)        NODELAY    15.0       50.0       1.00       0.250      1.000E-02  0.450         -          -      03_06_13                                
 212              (4,6,13)        NODELAY    15.0       90.0       1.00       0.250      1.000E-02  0.450         -          -      04_06_13                                
 213              (1,6,14)        NODELAY    15.0       45.0       1.00       0.250      1.000E-02  0.450         -          -      01_06_14                                
 214              (2,6,14)        NODELAY    15.0       70.0       1.00       0.250      1.000E-02  0.450         -          -      02_06_14                                
 215              (3,6,14)        NODELAY    15.0       50.0       1.00       0.250      1.000E-02  0.450         -          -      03_06_14                                
 216              (4,6,14)        NODELAY    15.0       90.0       1.00       0.250      1.000E-02  0.450         -          -      04_06_14                                
 217              (1,7,2)         NODELAY    15.0       45.0       1.00       0.250      1.000E-02  0.450         -          -      01_07_02                                
 218              (2,7,2)         NODELAY    15.0       70.0       1.00       0.250      1.000E-02  0.450         -          -      02_07_02                                
 219              (3,7,2)         NODELAY    15.0       50.0       1.00       0.250      1.000E-02  0.450         -          -      03_07_02                                
 220              (4,7,2)         NODELAY    15.0       90.0       1.00       0.250      1.000E-02  0.450         -          -      04_07_02                                
 221              (1,7,3)         NODELAY    15.0       45.0       1.00       0.250      1.000E-02  0.450         -          -      01_07_03                                
 222              (2,7,3)         NODELAY    15.0       70.0       1.00       0.250      1.000E-02  0.450         -          -      02_07_03                                
 223              (3,7,3)         NODELAY    15.0       50.0       1.00       0.250      1.000E-02  0.450         -          -      03_07_03                                
 224              (4,7,3)         NODELAY    15.0       90.0       1.00       0.250      1.000E-02  0.450         -          -      04_07_03                                
 225              (1,7,4)         NODELAY    15.0       45.0       1.00       0.250      1.000E-02  0.450         -          -      01_07_04                                
 226              (2,7,4)         NODELAY    15.0       70.0       1.00       0.250      1.000E-02  0.450         -          -      02_07_04                                
 227              (3,7,4)         NODELAY    15.0       50.0       1.00       0.250      1.000E-02  0.450         -          -      03_07_04                                
 228              (4,7,4)         NODELAY    15.0       90.0       1.00       0.250      1.000E-02  0.450         -          -      04_07_04                                
 229              (1,7,5)         NODELAY    15.0       45.0       1.00       0.250      1.000E-02  0.450         -          -      01_07_05                                
 230              (2,7,5)         NODELAY    15.0       70.0       1.00       0.250      1.000E-02  0.450         -          -      02_07_05                                
 231              (3,7,5)         NODELAY    15.0       50.0       1.00       0.250      1.000E-02  0.450         -          -      03_07_05                                
 232              (4,7,5)         NODELAY    15.0       90.0       1.00       0.250      1.000E-02  0.450         -          -      04_07_05                                
 233              (1,7,6)         NODELAY    15.0       45.0       1.00       0.250      1.000E-02  0.450         -          -      01_07_06                                
 234              (2,7,6)         NODELAY    15.0       70.0       1.00       0.250      1.000E-02  0.450         -          -      02_07_06                                
 235              (3,7,6)         NODELAY    15.0       50.0       1.00       0.250      1.000E-02  0.450         -          -      03_07_06                                
 236              (4,7,6)         NODELAY    15.0       90.0       1.00       0.250      1.000E-02  0.450         -          -      04_07_06                                
 237              (1,7,7)         NODELAY    15.0       45.0       1.00       0.250      1.000E-02  0.450         -          -      01_07_07                                
 238              (2,7,7)         NODELAY    15.0       70.0       1.00       0.250      1.000E-02  0.450         -          -      02_07_07                                
 239              (3,7,7)         NODELAY    15.0       50.0       1.00       0.250      1.000E-02  0.450         -          -      03_07_07                                
 240              (4,7,7)         NODELAY    15.0       90.0       1.00       0.250      1.000E-02  0.450         -          -      04_07_07                                
 241              (1,7,8)         NODELAY    15.0       45.0       1.00       0.250      1.000E-02  0.450         -          -      01_07_08                                
 242              (2,7,8)         NODELAY    15.0       70.0       1.00       0.250      1.000E-02  0.450         -          -      02_07_08                                
 243              (3,7,8)         NODELAY    15.0       50.0       1.00       0.250      1.000E-02  0.450         -          -      03_07_08                                
 244              (4,7,8)         NODELAY    15.0       90.0       1.00       0.250      1.000E-02  0.450         -          -      04_07_08                                
 245              (1,7,9)         NODELAY    15.0       45.0       1.00       0.250      1.000E-02  0.450         -          -      01_07_09                                
 246              (2,7,9)         NODELAY    15.0       70.0       1.00       0.250      1.000E-02  0.450         -          -      02_07_09                                
 247              (3,7,9)         NODELAY    15.0       50.0       1.00       0.250      1.000E-02  0.450         -          -      03_07_09                                
 248              (4,7,9)         NODELAY    15.0       90.0       1.00       0.250      1.000E-02  0.450         -          -      04_07_09                                
 249              (1,7,10)        NODELAY    15.0       45.0       1.00       0.250      1.000E-02  0.450         -          -      01_07_10                                
 250              (2,7,10)        NODELAY    15.0       70.0       1.00       0.250      1.000E-02  0.450         -          -      02_07_10                                
 251              (3,7,10)        NODELAY    15.0       50.0       1.00       0.250      1.000E-02  0.450         -          -      03_07_10                                
 252              (4,7,10)        NODELAY    15.0       90.0       1.00       0.250      1.000E-02  0.450         -          -      04_07_10                                
 253              (1,7,11)        NODELAY    15.0       45.0       1.00       0.250      1.000E-02  0.450         -          -      01_07_11                                
 254              (2,7,11)        NODELAY    15.0       70.0       1.00       0.250      1.000E-02  0.450         -          -      02_07_11                                
 255              (3,7,11)        NODELAY    15.0       50.0       1.00       0.250      1.000E-02  0.450         -          -      03_07_11                                
 256              (4,7,11)        NODELAY    15.0       90.0       1.00       0.250      1.000E-02  0.450         -          -      04_07_11                                
 257              (1,7,12)        NODELAY    15.0       45.0       1.00       0.250      1.000E-02  0.450         -          -      01_07_12                                
 258              (2,7,12)        NODELAY    15.0       70.0       1.00       0.250      1.000E-02  0.450         -          -      02_07_12                                
 259              (3,7,12)        NODELAY    15.0       50.0       1.00       0.250      1.000E-02  0.450         -          -      03_07_12                                
 260              (4,7,12)        NODELAY    15.0       90.0       1.00       0.250      1.000E-02  0.450         -          -      04_07_12                                
 261              (1,7,13)        NODELAY    15.0       45.0       1.00       0.250      1.000E-02  0.450         -          -      01_07_13                                
 262              (2,7,13)        NODELAY    15.0       70.0       1.00       0.250      1.000E-02  0.450         -          -      02_07_13                                
 263              (3,7,13)        NODELAY    15.0       50.0       1.00       0.250      1.000E-02  0.450         -          -      03_07_13                                
 264              (4,7,13)        NODELAY    15.0       90.0       1.00       0.250      1.000E-02  0.450         -          -      04_07_13                                
 265              (1,7,14)        NODELAY    15.0       45.0       1.00       0.250      1.000E-02  0.450         -          -      01_07_14                                
 266              (2,7,14)        NODELAY    15.0       70.0       1.00       0.250      1.000E-02  0.450         -          -      02_07_14                                
 267              (3,7,14)        NODELAY    15.0       50.0       1.00       0.250      1.000E-02  0.450         -          -      03_07_14                                
 268              (4,7,14)        NODELAY    15.0       90.0       1.00       0.250      1.000E-02  0.450         -          -      04_07_14                                
 269              (1,8,2)         NODELAY    15.0       45.0       1.00       0.250      1.000E-02  0.450         -          -      01_08_02                                
 270              (2,8,2)         NODELAY    15.0       70.0       1.00       0.250      1.000E-02  0.450         -          -      02_08_02                                
 271              (3,8,2)         NODELAY    15.0       50.0       1.00       0.250      1.000E-02  0.450         -          -      03_08_02                                
 272              (4,8,2)         NODELAY    15.0       90.0       1.00       0.250      1.000E-02  0.450         -          -      04_08_02                                
 273              (1,8,3)         NODELAY    15.0       45.0       1.00       0.250      1.000E-02  0.450         -          -      01_08_03                                
 274              (2,8,3)         NODELAY    15.0       70.0       1.00       0.250      1.000E-02  0.450         -          -      02_08_03                                
 275              (3,8,3)         NODELAY    15.0       50.0       1.00       0.250      1.000E-02  0.450         -          -      03_08_03                                
 276              (4,8,3)         NODELAY    15.0       90.0       1.00       0.250      1.000E-02  0.450         -          -      04_08_03                                
 277              (1,8,4)         NODELAY    15.0       45.0       1.00       0.250      1.000E-02  0.450         -          -      01_08_04                                
 278              (2,8,4)         NODELAY    15.0       70.0       1.00       0.250      1.000E-02  0.450         -          -      02_08_04                                
 279              (3,8,4)         NODELAY    15.0       50.0       1.00       0.250      1.000E-02  0.450         -          -      03_08_04                                
 280              (4,8,4)         NODELAY    15.0       90.0       1.00       0.250      1.000E-02  0.450         -          -      04_08_04                                
 281              (1,8,5)         NODELAY    15.0       45.0       1.00       0.250      1.000E-02  0.450         -          -      01_08_05                                
 282              (2,8,5)         NODELAY    15.0       70.0       1.00       0.250      1.000E-02  0.450         -          -      02_08_05                                
 283              (3,8,5)         NODELAY    15.0       50.0       1.00       0.250      1.000E-02  0.450         -          -      03_08_05                                
 284              (4,8,5)         NODELAY    15.0       90.0       1.00       0.250      1.000E-02  0.450         -          -      04_08_05                                
 285              (1,8,6)         NODELAY    15.0       45.0       1.00       0.250      1.000E-02  0.450         -          -      01_08_06                                
 286              (2,8,6)         NODELAY    15.0       70.0       1.00       0.250      1.000E-02  0.450         -          -      02_08_06                                
 287              (3,8,6)         NODELAY    15.0       50.0       1.00       0.250      1.000E-02  0.450         -          -      03_08_06                                
 288              (4,8,6)         NODELAY    15.0       90.0       1.00       0.250      1.000E-02  0.450         -          -      04_08_06                                
 289              (1,8,7)         NODELAY    15.0       45.0       1.00       0.250      1.000E-02  0.450         -          -      01_08_07                                
 290              (2,8,7)         NODELAY    15.0       70.0       1.00       0.250      1.000E-02  0.450         -          -      02_08_07                                
 291              (3,8,7)         NODELAY    15.0       50.0       1.00       0.250      1.000E-02  0.450         -          -      03_08_07                                
 292              (4,8,7)         NODELAY    15.0       90.0       1.00       0.250      1.000E-02  0.450         -          -      04_08_07                                
 293              (1,8,8)         NODELAY    15.0       45.0       1.00       0.250      1.000E-02  0.450         -          -      01_08_08                                
 294              (2,8,8)         NODELAY    15.0       70.0       1.00       0.250      1.000E-02  0.450         -          -      02_08_08                                
 295              (3,8,8)         NODELAY    15.0       50.0       1.00       0.250      1.000E-02  0.450         -          -      03_08_08                                
 296              (4,8,8)         NODELAY    15.0       90.0       1.00       0.250      1.000E-02  0.450         -          -      04_08_08                                
 297              (1,8,9)         NODELAY    15.0       45.0       1.00       0.250      1.000E-02  0.450         -          -      01_08_09                                
 298              (2,8,9)         NODELAY    15.0       70.0       1.00       0.250      1.000E-02  0.450         -          -      02_08_09                                
 299              (3,8,9)         NODELAY    15.0       50.0       1.00       0.250      1.000E-02  0.450         -          -      03_08_09                                
 300              (4,8,9)         NODELAY    15.0       90.0       1.00       0.250      1.000E-02  0.450         -          -      04_08_09                                
 301              (1,8,10)        NODELAY    15.0       45.0       1.00       0.250      1.000E-02  0.450         -          -      01_08_10                                
 302              (2,8,10)        NODELAY    15.0       70.0       1.00       0.250      1.000E-02  0.450         -          -      02_08_10                                
 303              (3,8,10)        NODELAY    15.0       50.0       1.00       0.250      1.000E-02  0.450         -          -      03_08_10                                
 304              (4,8,10)        NODELAY    15.0       90.0       1.00       0.250      1.000E-02  0.450         -          -      04_08_10                                
 305              (1,8,11)        NODELAY    15.0       45.0       1.00       0.250      1.000E-02  0.450         -          -      01_08_11                                
 306              (2,8,11)        NODELAY    15.0       70.0       1.00       0.250      1.000E-02  0.450         -          -      02_08_11                                
 307              (3,8,11)        NODELAY    15.0       50.0       1.00       0.250      1.000E-02  0.450         -          -      03_08_11                                
 308              (4,8,11)        NODELAY    15.0       90.0       1.00       0.250      1.000E-02  0.450         -          -      04_08_11                                
 309              (1,8,12)        NODELAY    15.0       45.0       1.00       0.250      1.000E-02  0.450         -          -      01_08_12                                
 310              (2,8,12)        NODELAY    15.0       70.0       1.00       0.250      1.000E-02  0.450         -          -      02_08_12                                
 311              (3,8,12)        NODELAY    15.0       50.0       1.00       0.250      1.000E-02  0.450         -          -      03_08_12                                
 312              (4,8,12)        NODELAY    15.0       90.0       1.00       0.250      1.000E-02  0.450         -          -      04_08_12                                
 313              (1,8,13)        NODELAY    15.0       45.0       1.00       0.250      1.000E-02  0.450         -          -      01_08_13                                
 314              (2,8,13)        NODELAY    15.0       70.0       1.00       0.250      1.000E-02  0.450         -          -      02_08_13                                
 315              (3,8,13)        NODELAY    15.0       50.0       1.00       0.250      1.000E-02  0.450         -          -      03_08_13                                
 316              (4,8,13)        NODELAY    15.0       90.0       1.00       0.250      1.000E-02  0.450         -          -      04_08_13                                
 317              (1,8,14)        NODELAY    15.0       45.0       1.00       0.250      1.000E-02  0.450         -          -      01_08_14                                
 318              (2,8,14)        NODELAY    15.0       70.0       1.00       0.250      1.000E-02  0.450         -          -      02_08_14                                
 319              (3,8,14)        NODELAY    15.0       50.0       1.00       0.250      1.000E-02  0.450         -          -      03_08_14                                
 320              (4,8,14)        NODELAY    15.0       90.0       1.00       0.250      1.000E-02  0.450         -          -      04_08_14                                
 321              (1,9,1)         NODELAY    15.0       45.0       1.00       0.250      1.000E-02  0.450         -          -      01_09_01                                
 322              (2,9,1)         NODELAY    15.0       70.0       1.00       0.250      1.000E-02  0.450         -          -      02_09_01                                
 323              (3,9,1)         NODELAY    15.0       50.0       1.00       0.250      1.000E-02  0.450         -          -      03_09_01                                
 324              (4,9,1)         NODELAY    15.0       90.0       1.00       0.250      1.000E-02  0.450         -          -      04_09_01                                
 325              (1,9,2)         NODELAY    15.0       45.0       1.00       0.250      1.000E-02  0.450         -          -      01_09_02                                
 326              (2,9,2)         NODELAY    15.0       70.0       1.00       0.250      1.000E-02  0.450         -          -      02_09_02                                
 327              (3,9,2)         NODELAY    15.0       50.0       1.00       0.250      1.000E-02  0.450         -          -      03_09_02                                
 328              (4,9,2)         NODELAY    15.0       90.0       1.00       0.250      1.000E-02  0.450         -          -      04_09_02                                
 329              (1,9,3)         NODELAY    15.0       45.0       1.00       0.250      1.000E-02  0.450         -          -      01_09_03                                
 330              (2,9,3)         NODELAY    15.0       70.0       1.00       0.250      1.000E-02  0.450         -          -      02_09_03                                
 331              (3,9,3)         NODELAY    15.0       50.0       1.00       0.250      1.000E-02  0.450         -          -      03_09_03                                
 332              (4,9,3)         NODELAY    15.0       90.0       1.00       0.250      1.000E-02  0.450         -          -      04_09_03                                
 333              (1,9,4)         NODELAY    15.0       45.0       1.00       0.250      1.000E-02  0.450         -          -      01_09_04                                
 334              (2,9,4)         NODELAY    15.0       70.0       1.00       0.250      1.000E-02  0.450         -          -      02_09_04                                
 335              (3,9,4)         NODELAY    15.0       50.0       1.00       0.250      1.000E-02  0.450         -          -      03_09_04                                
 336              (4,9,4)         NODELAY    15.0       90.0       1.00       0.250      1.000E-02  0.450         -          -      04_09_04                                
 337              (1,9,5)         NODELAY    15.0       45.0       1.00       0.250      1.000E-02  0.450         -          -      01_09_05                                
 338              (2,9,5)         NODELAY    15.0       70.0       1.00       0.250      1.000E-02  0.450         -          -      02_09_05                                
 339              (3,9,5)         NODELAY    15.0       50.0       1.00       0.250      1.000E-02  0.450         -          -      03_09_05                                
 340              (4,9,5)         NODELAY    15.0       90.0       1.00       0.250      1.000E-02  0.450         -          -      04_09_05                                
 341              (1,9,6)         NODELAY    15.0       45.0       1.00       0.250      1.000E-02  0.450         -          -      01_09_06                                
 342              (2,9,6)         NODELAY    15.0       70.0       1.00       0.250      1.000E-02  0.450         -          -      02_09_06                                
 343              (3,9,6)         NODELAY    15.0       50.0       1.00       0.250      1.000E-02  0.450         -          -      03_09_06                                
 344              (4,9,6)         NODELAY    15.0       90.0       1.00       0.250      1.000E-02  0.450         -          -      04_09_06                                
 345              (1,9,7)         NODELAY    15.0       45.0       1.00       0.250      1.000E-02  0.450         -          -      01_09_07                                
 346              (2,9,7)         NODELAY    15.0       70.0       1.00       0.250      1.000E-02  0.450         -          -      02_09_07                                
 347              (3,9,7)         NODELAY    15.0       50.0       1.00       0.250      1.000E-02  0.450         -          -      03_09_07                                
 348              (4,9,7)         NODELAY    15.0       90.0       1.00       0.250      1.000E-02  0.450         -          -      04_09_07                                
 349              (1,9,8)         NODELAY    15.0       45.0       1.00       0.250      1.000E-02  0.450         -          -      01_09_08                                
 350              (2,9,8)         NODELAY    15.0       70.0       1.00       0.250      1.000E-02  0.450         -          -      02_09_08                                
 351              (3,9,8)         NODELAY    15.0       50.0       1.00       0.250      1.000E-02  0.450         -          -      03_09_08                                
 352              (4,9,8)         NODELAY    15.0       90.0       1.00       0.250      1.000E-02  0.450         -          -      04_09_08                                
 353              (1,9,9)         NODELAY    15.0       45.0       1.00       0.250      1.000E-02  0.450         -          -      01_09_09                                
 354              (2,9,9)         NODELAY    15.0       70.0       1.00       0.250      1.000E-02  0.450         -          -      02_09_09                                
 355              (3,9,9)         NODELAY    15.0       50.0       1.00       0.250      1.000E-02  0.450         -          -      03_09_09                                
 356              (4,9,9)         NODELAY    15.0       90.0       1.00       0.250      1.000E-02  0.450         -          -      04_09_09                                
 357              (1,9,10)        NODELAY    15.0       45.0       1.00       0.250      1.000E-02  0.450         -          -      01_09_10                                
 358              (2,9,10)        NODELAY    15.0       70.0       1.00       0.250      1.000E-02  0.450         -          -      02_09_10                                
 359              (3,9,10)        NODELAY    15.0       50.0       1.00       0.250      1.000E-02  0.450         -          -      03_09_10                                
 360              (4,9,10)        NODELAY    15.0       90.0       1.00       0.250      1.000E-02  0.450         -          -      04_09_10                                
 361              (1,9,11)        NODELAY    15.0       45.0       1.00       0.250      1.000E-02  0.450         -          -      01_09_11                                
 362              (2,9,11)        NODELAY    15.0       70.0       1.00       0.250      1.000E-02  0.450         -          -      02_09_11                                
 363              (3,9,11)        NODELAY    15.0       50.0       1.00       0.250      1.000E-02  0.450         -          -      03_09_11                                
 364              (4,9,11)        NODELAY    15.0       90.0       1.00       0.250      1.000E-02  0.450         -          -      04_09_11                                
 365              (1,9,12)        NODELAY    15.0       45.0       1.00       0.250      1.000E-02  0.450         -          -      01_09_12                                
 366              (2,9,12)        NODELAY    15.0       70.0       1.00       0.250      1.000E-02  0.450         -          -      02_09_12                                
 367              (3,9,12)        NODELAY    15.0       50.0       1.00       0.250      1.000E-02  0.450         -          -      03_09_12                                
 368              (4,9,12)        NODELAY    15.0       90.0       1.00       0.250      1.000E-02  0.450         -          -      04_09_12                                
 369              (1,9,13)        NODELAY    15.0       45.0       1.00       0.250      1.000E-02  0.450         -          -      01_09_13                                
 370              (2,9,13)        NODELAY    15.0       70.0       1.00       0.250      1.000E-02  0.450         -          -      02_09_13                                
 371              (3,9,13)        NODELAY    15.0       50.0       1.00       0.250      1.000E-02  0.450         -          -      03_09_13                                
 372              (4,9,13)        NODELAY    15.0       90.0       1.00       0.250      1.000E-02  0.450         -          -      04_09_13                                
 373              (1,9,14)        NODELAY    15.0       45.0       1.00       0.250      1.000E-02  0.450         -          -      01_09_14                                
 374              (2,9,14)        NODELAY    15.0       70.0       1.00       0.250      1.000E-02  0.450         -          -      02_09_14                                
 375              (3,9,14)        NODELAY    15.0       50.0       1.00       0.250      1.000E-02  0.450         -          -      03_09_14                                
 376              (4,9,14)        NODELAY    15.0       90.0       1.00       0.250      1.000E-02  0.450         -          -      04_09_14                                
 377              (1,9,15)        NODELAY    15.0       45.0       1.00       0.250      1.000E-02  0.450         -          -      01_09_15                                
 378              (2,9,15)        NODELAY    15.0       70.0       1.00       0.250      1.000E-02  0.450         -          -      02_09_15                                
 379              (3,9,15)        NODELAY    15.0       50.0       1.00       0.250      1.000E-02  0.450         -          -      03_09_15                                
 380              (4,9,15)        NODELAY    15.0       90.0       1.00       0.250      1.000E-02  0.450         -          -      04_09_15                                
 381              (1,10,1)        NODELAY    15.0       45.0       1.00       0.250      1.000E-02  0.450         -          -      01_10_01                                
 382              (2,10,1)        NODELAY    15.0       70.0       1.00       0.250      1.000E-02  0.450         -          -      02_10_01                                
 383              (3,10,1)        NODELAY    15.0       50.0       1.00       0.250      1.000E-02  0.450         -          -      03_10_01                                
 384              (4,10,1)        NODELAY    15.0       90.0       1.00       0.250      1.000E-02  0.450         -          -      04_10_01                                
 385              (1,10,2)        NODELAY    15.0       45.0       1.00       0.250      1.000E-02  0.450         -          -      01_10_02                                
 386              (2,10,2)        NODELAY    15.0       70.0       1.00       0.250      1.000E-02  0.450         -          -      02_10_02                                
 387              (3,10,2)        NODELAY    15.0       50.0       1.00       0.250      1.000E-02  0.450         -          -      03_10_02                                
 388              (4,10,2)        NODELAY    15.0       90.0       1.00       0.250      1.000E-02  0.450         -          -      04_10_02                                
 389              (1,10,3)        NODELAY    15.0       45.0       1.00       0.250      1.000E-02  0.450         -          -      01_10_03                                
 390              (2,10,3)        NODELAY    15.0       70.0       1.00       0.250      1.000E-02  0.450         -          -      02_10_03                                
 391              (3,10,3)        NODELAY    15.0       50.0       1.00       0.250      1.000E-02  0.450         -          -      03_10_03                                
 392              (4,10,3)        NODELAY    15.0       90.0       1.00       0.250      1.000E-02  0.450         -          -      04_10_03                                
 393              (1,10,4)        NODELAY    15.0       45.0       1.00       0.250      1.000E-02  0.450         -          -      01_10_04                                
 394              (2,10,4)        NODELAY    15.0       70.0       1.00       0.250      1.000E-02  0.450         -          -      02_10_04                                
 395              (3,10,4)        NODELAY    15.0       50.0       1.00       0.250      1.000E-02  0.450         -          -      03_10_04                                
 396              (4,10,4)        NODELAY    15.0       90.0       1.00       0.250      1.000E-02  0.450         -          -      04_10_04                                
 397              (1,10,5)        NODELAY    15.0       45.0       1.00       0.250      1.000E-02  0.450         -          -      01_10_05                                
 398              (2,10,5)        NODELAY    15.0       70.0       1.00       0.250      1.000E-02  0.450         -          -      02_10_05                                
 399              (3,10,5)        NODELAY    15.0       50.0       1.00       0.250      1.000E-02  0.450         -          -      03_10_05                                
 400              (4,10,5)        NODELAY    15.0       90.0       1.00       0.250      1.000E-02  0.450         -          -      04_10_05                                
 401              (1,10,6)        NODELAY    15.0       45.0       1.00       0.250      1.000E-02  0.450         -          -      01_10_06                                
 402              (2,10,6)        NODELAY    15.0       70.0       1.00       0.250      1.000E-02  0.450         -          -      02_10_06                                
 403              (3,10,6)        NODELAY    15.0       50.0       1.00       0.250      1.000E-02  0.450         -          -      03_10_06                                
 404              (4,10,6)        NODELAY    15.0       90.0       1.00       0.250      1.000E-02  0.450         -          -      04_10_06                                
 405              (1,10,7)        NODELAY    15.0       45.0       1.00       0.250      1.000E-02  0.450         -          -      01_10_07                                
 406              (2,10,7)        NODELAY    15.0       70.0       1.00       0.250      1.000E-02  0.450         -          -      02_10_07                                
 407              (3,10,7)        NODELAY    15.0       50.0       1.00       0.250      1.000E-02  0.450         -          -      03_10_07                                
 408              (4,10,7)        NODELAY    15.0       90.0       1.00       0.250      1.000E-02  0.450         -          -      04_10_07                                
 409              (1,10,8)        NODELAY    15.0       45.0       1.00       0.250      1.000E-02  0.450         -          -      01_10_08                                
 410              (2,10,8)        NODELAY    15.0       70.0       1.00       0.250      1.000E-02  0.450         -          -      02_10_08                                
 411              (3,10,8)        NODELAY    15.0       50.0       1.00       0.250      1.000E-02  0.450         -          -      03_10_08                                
 412              (4,10,8)        NODELAY    15.0       90.0       1.00       0.250      1.000E-02  0.450         -          -      04_10_08                                
 413              (1,10,9)        NODELAY    15.0       45.0       1.00       0.250      1.000E-02  0.450         -          -      01_10_09                                
 414              (2,10,9)        NODELAY    15.0       70.0       1.00       0.250      1.000E-02  0.450         -          -      02_10_09                                
 415              (3,10,9)        NODELAY    15.0       50.0       1.00       0.250      1.000E-02  0.450         -          -      03_10_09                                
 416              (4,10,9)        NODELAY    15.0       90.0       1.00       0.250      1.000E-02  0.450         -          -      04_10_09                                
 417             (1,10,10)        NODELAY    15.0       45.0       1.00       0.250      1.000E-02  0.450         -          -      01_10_10                                
 418             (2,10,10)        NODELAY    15.0       70.0       1.00       0.250      1.000E-02  0.450         -          -      02_10_10                                
 419             (3,10,10)        NODELAY    15.0       50.0       1.00       0.250      1.000E-02  0.450         -          -      03_10_10                                
 420             (4,10,10)        NODELAY    15.0       90.0       1.00       0.250      1.000E-02  0.450         -          -      04_10_10                                
 421             (1,10,11)        NODELAY    15.0       45.0       1.00       0.250      1.000E-02  0.450         -          -      01_10_11                                
 422             (2,10,11)        NODELAY    15.0       70.0       1.00       0.250      1.000E-02  0.450         -          -      02_10_11                                
 423             (3,10,11)        NODELAY    15.0       50.0       1.00       0.250      1.000E-02  0.450         -          -      03_10_11                                
 424             (4,10,11)        NODELAY    15.0       90.0       1.00       0.250      1.000E-02  0.450         -          -      04_10_11                                
 425             (1,10,12)        NODELAY    15.0       45.0       1.00       0.250      1.000E-02  0.450         -          -      01_10_12                                
 426             (2,10,12)        NODELAY    15.0       70.0       1.00       0.250      1.000E-02  0.450         -          -      02_10_12                                
 427             (3,10,12)        NODELAY    15.0       50.0       1.00       0.250      1.000E-02  0.450         -          -      03_10_12                                
 428             (4,10,12)        NODELAY    15.0       90.0       1.00       0.250      1.000E-02  0.450         -          -      04_10_12                                
 429             (1,10,13)        NODELAY    15.0       45.0       1.00       0.250      1.000E-02  0.450         -          -      01_10_13                                
 430             (2,10,13)        NODELAY    15.0       70.0       1.00       0.250      1.000E-02  0.450         -          -      02_10_13                                
 431             (3,10,13)        NODELAY    15.0       50.0       1.00       0.250      1.000E-02  0.450         -          -      03_10_13                                
 432             (4,10,13)        NODELAY    15.0       90.0       1.00       0.250      1.000E-02  0.450         -          -      04_10_13                                
 433             (1,10,14)        NODELAY    15.0       45.0       1.00       0.250      1.000E-02  0.450         -          -      01_10_14                                
 434             (2,10,14)        NODELAY    15.0       70.0       1.00       0.250      1.000E-02  0.450         -          -      02_10_14                                
 435             (3,10,14)        NODELAY    15.0       50.0       1.00       0.250      1.000E-02  0.450         -          -      03_10_14                                
 436             (4,10,14)        NODELAY    15.0       90.0       1.00       0.250      1.000E-02  0.450         -          -      04_10_14                                
 437             (1,10,15)        NODELAY    15.0       45.0       1.00       0.250      1.000E-02  0.450         -          -      01_10_15                                
 438             (2,10,15)        NODELAY    15.0       70.0       1.00       0.250      1.000E-02  0.450         -          -      02_10_15                                
 439             (3,10,15)        NODELAY    15.0       50.0       1.00       0.250      1.000E-02  0.450         -          -      03_10_15                                
 440             (4,10,15)        NODELAY    15.0       90.0       1.00       0.250      1.000E-02  0.450         -          -      04_10_15                                
 441              (1,11,1)        NODELAY    15.0       45.0       1.00       0.250      1.000E-02  0.450         -          -      01_11_01                                
 442              (2,11,1)        NODELAY    15.0       70.0       1.00       0.250      1.000E-02  0.450         -          -      02_11_01                                
 443              (3,11,1)        NODELAY    15.0       50.0       1.00       0.250      1.000E-02  0.450         -          -      03_11_01                                
 444              (4,11,1)        NODELAY    15.0       90.0       1.00       0.250      1.000E-02  0.450         -          -      04_11_01                                
 445              (1,11,2)        NODELAY    15.0       45.0       1.00       0.250      1.000E-02  0.450         -          -      01_11_02                                
 446              (2,11,2)        NODELAY    15.0       70.0       1.00       0.250      1.000E-02  0.450         -          -      02_11_02                                
 447              (3,11,2)        NODELAY    15.0       50.0       1.00       0.250      1.000E-02  0.450         -          -      03_11_02                                
 448              (4,11,2)        NODELAY    15.0       90.0       1.00       0.250      1.000E-02  0.450         -          -      04_11_02                                
 449              (1,11,3)        NODELAY    15.0       45.0       1.00       0.250      1.000E-02  0.450         -          -      01_11_03                                
 450              (2,11,3)        NODELAY    15.0       70.0       1.00       0.250      1.000E-02  0.450         -          -      02_11_03                                
 451              (3,11,3)        NODELAY    15.0       50.0       1.00       0.250      1.000E-02  0.450         -          -      03_11_03                                
 452              (4,11,3)        NODELAY    15.0       90.0       1.00       0.250      1.000E-02  0.450         -          -      04_11_03                                
 453              (1,11,4)        NODELAY    15.0       45.0       1.00       0.250      1.000E-02  0.450         -          -      01_11_04                                
 454              (2,11,4)        NODELAY    15.0       70.0       1.00       0.250      1.000E-02  0.450         -          -      02_11_04                                
 455              (3,11,4)        NODELAY    15.0       50.0       1.00       0.250      1.000E-02  0.450         -          -      03_11_04                                
 456              (4,11,4)        NODELAY    15.0       90.0       1.00       0.250      1.000E-02  0.450         -          -      04_11_04                                
 457              (1,11,5)        NODELAY    15.0       45.0       1.00       0.250      1.000E-02  0.450         -          -      01_11_05                                
 458              (2,11,5)        NODELAY    15.0       70.0       1.00       0.250      1.000E-02  0.450         -          -      02_11_05                                
 459              (3,11,5)        NODELAY    15.0       50.0       1.00       0.250      1.000E-02  0.450         -          -      03_11_05                                
 460              (4,11,5)        NODELAY    15.0       90.0       1.00       0.250      1.000E-02  0.450         -          -      04_11_05                                
 461              (1,11,6)        NODELAY    15.0       45.0       1.00       0.250      1.000E-02  0.450         -          -      01_11_06                                
 462              (2,11,6)        NODELAY    15.0       70.0       1.00       0.250      1.000E-02  0.450         -          -      02_11_06                                
 463              (3,11,6)        NODELAY    15.0       50.0       1.00       0.250      1.000E-02  0.450         -          -      03_11_06                                
 464              (4,11,6)        NODELAY    15.0       90.0       1.00       0.250      1.000E-02  0.450         -          -      04_11_06                                
 465              (1,11,7)        NODELAY    15.0       45.0       1.00       0.250      1.000E-02  0.450         -          -      01_11_07                                
 466              (2,11,7)        NODELAY    15.0       70.0       1.00       0.250      1.000E-02  0.450         -          -      02_11_07                                
 467              (3,11,7)        NODELAY    15.0       50.0       1.00       0.250      1.000E-02  0.450         -          -      03_11_07                                
 468              (4,11,7)        NODELAY    15.0       90.0       1.00       0.250      1.000E-02  0.450         -          -      04_11_07                                
 469              (1,11,8)        NODELAY    15.0       45.0       1.00       0.250      1.000E-02  0.450         -          -      01_11_08                                
 470              (2,11,8)        NODELAY    15.0       70.0       1.00       0.250      1.000E-02  0.450         -          -      02_11_08                                
 471              (3,11,8)        NODELAY    15.0       50.0       1.00       0.250      1.000E-02  0.450         -          -      03_11_08                                
 472              (4,11,8)        NODELAY    15.0       90.0       1.00       0.250      1.000E-02  0.450         -          -      04_11_08                                
 473              (1,11,9)        NODELAY    15.0       45.0       1.00       0.250      1.000E-02  0.450         -          -      01_11_09                                
 474              (2,11,9)        NODELAY    15.0       70.0       1.00       0.250      1.000E-02  0.450         -          -      02_11_09                                
 475              (3,11,9)        NODELAY    15.0       50.0       1.00       0.250      1.000E-02  0.450         -          -      03_11_09                                
 476              (4,11,9)        NODELAY    15.0       90.0       1.00       0.250      1.000E-02  0.450         -          -      04_11_09                                
 477             (1,11,10)        NODELAY    15.0       45.0       1.00       0.250      1.000E-02  0.450         -          -      01_11_10                                
 478             (2,11,10)        NODELAY    15.0       70.0       1.00       0.250      1.000E-02  0.450         -          -      02_11_10                                
 479             (3,11,10)        NODELAY    15.0       50.0       1.00       0.250      1.000E-02  0.450         -          -      03_11_10                                
 480             (4,11,10)        NODELAY    15.0       90.0       1.00       0.250      1.000E-02  0.450         -          -      04_11_10                                
 481             (1,11,11)        NODELAY    15.0       45.0       1.00       0.250      1.000E-02  0.450         -          -      01_11_11                                
 482             (2,11,11)        NODELAY    15.0       70.0       1.00       0.250      1.000E-02  0.450         -          -      02_11_11                                
 483             (3,11,11)        NODELAY    15.0       50.0       1.00       0.250      1.000E-02  0.450         -          -      03_11_11                                
 484             (4,11,11)        NODELAY    15.0       90.0       1.00       0.250      1.000E-02  0.450         -          -      04_11_11                                
 485             (1,11,12)        NODELAY    15.0       45.0       1.00       0.250      1.000E-02  0.450         -          -      01_11_12                                
 486             (2,11,12)        NODELAY    15.0       70.0       1.00       0.250      1.000E-02  0.450         -          -      02_11_12                                
 487             (3,11,12)        NODELAY    15.0       50.0       1.00       0.250      1.000E-02  0.450         -          -      03_11_12                                
 488             (4,11,12)        NODELAY    15.0       90.0       1.00       0.250      1.000E-02  0.450         -          -      04_11_12                                
 489             (1,11,13)        NODELAY    15.0       45.0       1.00       0.250      1.000E-02  0.450         -          -      01_11_13                                
 490             (2,11,13)        NODELAY    15.0       70.0       1.00       0.250      1.000E-02  0.450         -          -      02_11_13                                
 491             (3,11,13)        NODELAY    15.0       50.0       1.00       0.250      1.000E-02  0.450         -          -      03_11_13                                
 492             (4,11,13)        NODELAY    15.0       90.0       1.00       0.250      1.000E-02  0.450         -          -      04_11_13                                
 493             (1,11,14)        NODELAY    15.0       45.0       1.00       0.250      1.000E-02  0.450         -          -      01_11_14                                
 494             (2,11,14)        NODELAY    15.0       70.0       1.00       0.250      1.000E-02  0.450         -          -      02_11_14                                
 495             (3,11,14)        NODELAY    15.0       50.0       1.00       0.250      1.000E-02  0.450         -          -      03_11_14                                
 496             (4,11,14)        NODELAY    15.0       90.0       1.00       0.250      1.000E-02  0.450         -          -      04_11_14                                
 497             (1,11,15)        NODELAY    15.0       45.0       1.00       0.250      1.000E-02  0.450         -          -      01_11_15                                
 498             (2,11,15)        NODELAY    15.0       70.0       1.00       0.250      1.000E-02  0.450         -          -      02_11_15                                
 499             (3,11,15)        NODELAY    15.0       50.0       1.00       0.250      1.000E-02  0.450         -          -      03_11_15                                
 500             (4,11,15)        NODELAY    15.0       90.0       1.00       0.250      1.000E-02  0.450         -          -      04_11_15                                
 501              (1,12,2)        NODELAY    15.0       45.0       1.00       0.250      1.000E-02  0.450         -          -      01_12_02                                
 502              (2,12,2)        NODELAY    15.0       70.0       1.00       0.250      1.000E-02  0.450         -          -      02_12_02                                
 503              (3,12,2)        NODELAY    15.0       50.0       1.00       0.250      1.000E-02  0.450         -          -      03_12_02                                
 504              (4,12,2)        NODELAY    15.0       90.0       1.00       0.250      1.000E-02  0.450         -          -      04_12_02                                
 505              (1,12,3)        NODELAY    15.0       45.0       1.00       0.250      1.000E-02  0.450         -          -      01_12_03                                
 506              (2,12,3)        NODELAY    15.0       70.0       1.00       0.250      1.000E-02  0.450         -          -      02_12_03                                
 507              (3,12,3)        NODELAY    15.0       50.0       1.00       0.250      1.000E-02  0.450         -          -      03_12_03                                
 508              (4,12,3)        NODELAY    15.0       90.0       1.00       0.250      1.000E-02  0.450         -          -      04_12_03                                
 509              (1,12,4)        NODELAY    15.0       45.0       1.00       0.250      1.000E-02  0.450         -          -      01_12_04                                
 510              (2,12,4)        NODELAY    15.0       70.0       1.00       0.250      1.000E-02  0.450         -          -      02_12_04                                
 511              (3,12,4)        NODELAY    15.0       50.0       1.00       0.250      1.000E-02  0.450         -          -      03_12_04                                
 512              (4,12,4)        NODELAY    15.0       90.0       1.00       0.250      1.000E-02  0.450         -          -      04_12_04                                
 513              (1,12,5)        NODELAY    15.0       45.0       1.00       0.250      1.000E-02  0.450         -          -      01_12_05                                
 514              (2,12,5)        NODELAY    15.0       70.0       1.00       0.250      1.000E-02  0.450         -          -      02_12_05                                
 515              (3,12,5)        NODELAY    15.0       50.0       1.00       0.250      1.000E-02  0.450         -          -      03_12_05                                
 516              (4,12,5)        NODELAY    15.0       90.0       1.00       0.250      1.000E-02  0.450         -          -      04_12_05                                
 517              (1,12,6)        NODELAY    15.0       45.0       1.00       0.250      1.000E-02  0.450         -          -      01_12_06                                
 518              (2,12,6)        NODELAY    15.0       70.0       1.00       0.250      1.000E-02  0.450         -          -      02_12_06                                
 519              (3,12,6)        NODELAY    15.0       50.0       1.00       0.250      1.000E-02  0.450         -          -      03_12_06                                
 520              (4,12,6)        NODELAY    15.0       90.0       1.00       0.250      1.000E-02  0.450         -          -      04_12_06                                
 521              (1,12,7)        NODELAY    15.0       45.0       1.00       0.250      1.000E-02  0.450         -          -      01_12_07                                
 522              (2,12,7)        NODELAY    15.0       70.0       1.00       0.250      1.000E-02  0.450         -          -      02_12_07                                
 523              (3,12,7)        NODELAY    15.0       50.0       1.00       0.250      1.000E-02  0.450         -          -      03_12_07                                
 524              (4,12,7)        NODELAY    15.0       90.0       1.00       0.250      1.000E-02  0.450         -          -      04_12_07                                
 525              (1,12,8)        NODELAY    15.0       45.0       1.00       0.250      1.000E-02  0.450         -          -      01_12_08                                
 526              (2,12,8)        NODELAY    15.0       70.0       1.00       0.250      1.000E-02  0.450         -          -      02_12_08                                
 527              (3,12,8)        NODELAY    15.0       50.0       1.00       0.250      1.000E-02  0.450         -          -      03_12_08                                
 528              (4,12,8)        NODELAY    15.0       90.0       1.00       0.250      1.000E-02  0.450         -          -      04_12_08                                
 529              (1,12,9)        NODELAY    15.0       45.0       1.00       0.250      1.000E-02  0.450         -          -      01_12_09                                
 530              (2,12,9)        NODELAY    15.0       70.0       1.00       0.250      1.000E-02  0.450         -          -      02_12_09                                
 531              (3,12,9)        NODELAY    15.0       50.0       1.00       0.250      1.000E-02  0.450         -          -      03_12_09                                
 532              (4,12,9)        NODELAY    15.0       90.0       1.00       0.250      1.000E-02  0.450         -          -      04_12_09                                
 533             (1,12,10)        NODELAY    15.0       45.0       1.00       0.250      1.000E-02  0.450         -          -      01_12_10                                
 534             (2,12,10)        NODELAY    15.0       70.0       1.00       0.250      1.000E-02  0.450         -          -      02_12_10                                
 535             (3,12,10)        NODELAY    15.0       50.0       1.00       0.250      1.000E-02  0.450         -          -      03_12_10                                
 536             (4,12,10)        NODELAY    15.0       90.0       1.00       0.250      1.000E-02  0.450         -          -      04_12_10                                
 537             (1,12,11)        NODELAY    15.0       45.0       1.00       0.250      1.000E-02  0.450         -          -      01_12_11                                
 538             (2,12,11)        NODELAY    15.0       70.0       1.00       0.250      1.000E-02  0.450         -          -      02_12_11                                
 539             (3,12,11)        NODELAY    15.0       50.0       1.00       0.250      1.000E-02  0.450         -          -      03_12_11                                
 540             (4,12,11)        NODELAY    15.0       90.0       1.00       0.250      1.000E-02  0.450         -          -      04_12_11                                
 541             (1,12,12)        NODELAY    15.0       45.0       1.00       0.250      1.000E-02  0.450         -          -      01_12_12                                
 542             (2,12,12)        NODELAY    15.0       70.0       1.00       0.250      1.000E-02  0.450         -          -      02_12_12                                
 543             (3,12,12)        NODELAY    15.0       50.0       1.00       0.250      1.000E-02  0.450         -          -      03_12_12                                
 544             (4,12,12)        NODELAY    15.0       90.0       1.00       0.250      1.000E-02  0.450         -          -      04_12_12                                
 545             (1,12,13)        NODELAY    15.0       45.0       1.00       0.250      1.000E-02  0.450         -          -      01_12_13                                
 546             (2,12,13)        NODELAY    15.0       70.0       1.00       0.250      1.000E-02  0.450         -          -      02_12_13                                
 547             (3,12,13)        NODELAY    15.0       50.0       1.00       0.250      1.000E-02  0.450         -          -      03_12_13                                
 548             (4,12,13)        NODELAY    15.0       90.0       1.00       0.250      1.000E-02  0.450         -          -      04_12_13                                
 549             (1,12,14)        NODELAY    15.0       45.0       1.00       0.250      1.000E-02  0.450         -          -      01_12_14                                
 550             (2,12,14)        NODELAY    15.0       70.0       1.00       0.250      1.000E-02  0.450         -          -      02_12_14                                
 551             (3,12,14)        NODELAY    15.0       50.0       1.00       0.250      1.000E-02  0.450         -          -      03_12_14                                
 552             (4,12,14)        NODELAY    15.0       90.0       1.00       0.250      1.000E-02  0.450         -          -      04_12_14                                
 553             (1,12,15)        NODELAY    15.0       45.0       1.00       0.250      1.000E-02  0.450         -          -      01_12_15                                
 554             (2,12,15)        NODELAY    15.0       70.0       1.00       0.250      1.000E-02  0.450         -          -      02_12_15                                
 555             (3,12,15)        NODELAY    15.0       50.0       1.00       0.250      1.000E-02  0.450         -          -      03_12_15                                
 556             (4,12,15)        NODELAY    15.0       90.0       1.00       0.250      1.000E-02  0.450         -          -      04_12_15                                
 557              (1,13,2)        NODELAY    15.0       45.0       1.00       0.250      1.000E-02  0.450         -          -      01_13_02                                
 558              (2,13,2)        NODELAY    15.0       70.0       1.00       0.250      1.000E-02  0.450         -          -      02_13_02                                
 559              (3,13,2)        NODELAY    15.0       50.0       1.00       0.250      1.000E-02  0.450         -          -      03_13_02                                
 560              (4,13,2)        NODELAY    15.0       90.0       1.00       0.250      1.000E-02  0.450         -          -      04_13_02                                
 561              (1,13,3)        NODELAY    15.0       45.0       1.00       0.250      1.000E-02  0.450         -          -      01_13_03                                
 562              (2,13,3)        NODELAY    15.0       70.0       1.00       0.250      1.000E-02  0.450         -          -      02_13_03                                
 563              (3,13,3)        NODELAY    15.0       50.0       1.00       0.250      1.000E-02  0.450         -          -      03_13_03                                
 564              (4,13,3)        NODELAY    15.0       90.0       1.00       0.250      1.000E-02  0.450         -          -      04_13_03                                
 565              (1,13,4)        NODELAY    15.0       45.0       1.00       0.250      1.000E-02  0.450         -          -      01_13_04                                
 566              (2,13,4)        NODELAY    15.0       70.0       1.00       0.250      1.000E-02  0.450         -          -      02_13_04                                
 567              (3,13,4)        NODELAY    15.0       50.0       1.00       0.250      1.000E-02  0.450         -          -      03_13_04                                
 568              (4,13,4)        NODELAY    15.0       90.0       1.00       0.250      1.000E-02  0.450         -          -      04_13_04                                
 569              (1,13,5)        NODELAY    15.0       45.0       1.00       0.250      1.000E-02  0.450         -          -      01_13_05                                
 570              (2,13,5)        NODELAY    15.0       70.0       1.00       0.250      1.000E-02  0.450         -          -      02_13_05                                
 571              (3,13,5)        NODELAY    15.0       50.0       1.00       0.250      1.000E-02  0.450         -          -      03_13_05                                
 572              (4,13,5)        NODELAY    15.0       90.0       1.00       0.250      1.000E-02  0.450         -          -      04_13_05                                
 573              (1,13,6)        NODELAY    15.0       45.0       1.00       0.250      1.000E-02  0.450         -          -      01_13_06                                
 574              (2,13,6)        NODELAY    15.0       70.0       1.00       0.250      1.000E-02  0.450         -          -      02_13_06                                
 575              (3,13,6)        NODELAY    15.0       50.0       1.00       0.250      1.000E-02  0.450         -          -      03_13_06                                
 576              (4,13,6)        NODELAY    15.0       90.0       1.00       0.250      1.000E-02  0.450         -          -      04_13_06                                
 577              (1,13,7)        NODELAY    15.0       45.0       1.00       0.250      1.000E-02  0.450         -          -      01_13_07                                
 578              (2,13,7)        NODELAY    15.0       70.0       1.00       0.250      1.000E-02  0.450         -          -      02_13_07                                
 579              (3,13,7)        NODELAY    15.0       50.0       1.00       0.250      1.000E-02  0.450         -          -      03_13_07                                
 580              (4,13,7)        NODELAY    15.0       90.0       1.00       0.250      1.000E-02  0.450         -          -      04_13_07                                
 581              (1,13,8)        NODELAY    15.0       45.0       1.00       0.250      1.000E-02  0.450         -          -      01_13_08                                
 582              (2,13,8)        NODELAY    15.0       70.0       1.00       0.250      1.000E-02  0.450         -          -      02_13_08                                
 583              (3,13,8)        NODELAY    15.0       50.0       1.00       0.250      1.000E-02  0.450         -          -      03_13_08                                
 584              (4,13,8)        NODELAY    15.0       90.0       1.00       0.250      1.000E-02  0.450         -          -      04_13_08                                
 585              (1,13,9)        NODELAY    15.0       45.0       1.00       0.250      1.000E-02  0.450         -          -      01_13_09                                
 586              (2,13,9)        NODELAY    15.0       70.0       1.00       0.250      1.000E-02  0.450         -          -      02_13_09                                
 587              (3,13,9)        NODELAY    15.0       50.0       1.00       0.250      1.000E-02  0.450         -          -      03_13_09                                
 588              (4,13,9)        NODELAY    15.0       90.0       1.00       0.250      1.000E-02  0.450         -          -      04_13_09                                
 589             (1,13,10)        NODELAY    15.0       45.0       1.00       0.250      1.000E-02  0.450         -          -      01_13_10                                
 590             (2,13,10)        NODELAY    15.0       70.0       1.00       0.250      1.000E-02  0.450         -          -      02_13_10                                
 591             (3,13,10)        NODELAY    15.0       50.0       1.00       0.250      1.000E-02  0.450         -          -      03_13_10                                
 592             (4,13,10)        NODELAY    15.0       90.0       1.00       0.250      1.000E-02  0.450         -          -      04_13_10                                
 593             (1,13,11)        NODELAY    15.0       45.0       1.00       0.250      1.000E-02  0.450         -          -      01_13_11                                
 594             (2,13,11)        NODELAY    15.0       70.0       1.00       0.250      1.000E-02  0.450         -          -      02_13_11                                
 595             (3,13,11)        NODELAY    15.0       50.0       1.00       0.250      1.000E-02  0.450         -          -      03_13_11                                
 596             (4,13,11)        NODELAY    15.0       90.0       1.00       0.250      1.000E-02  0.450         -          -      04_13_11                                
 597             (1,13,12)        NODELAY    15.0       45.0       1.00       0.250      1.000E-02  0.450         -          -      01_13_12                                
 598             (2,13,12)        NODELAY    15.0       70.0       1.00       0.250      1.000E-02  0.450         -          -      02_13_12                                
 599             (3,13,12)        NODELAY    15.0       50.0       1.00       0.250      1.000E-02  0.450         -          -      03_13_12                                
 600             (4,13,12)        NODELAY    15.0       90.0       1.00       0.250      1.000E-02  0.450         -          -      04_13_12                                
 601             (1,13,13)        NODELAY    15.0       45.0       1.00       0.250      1.000E-02  0.450         -          -      01_13_13                                
 602             (2,13,13)        NODELAY    15.0       70.0       1.00       0.250      1.000E-02  0.450         -          -      02_13_13                                
 603             (3,13,13)        NODELAY    15.0       50.0       1.00       0.250      1.000E-02  0.450         -          -      03_13_13                                
 604             (4,13,13)        NODELAY    15.0       90.0       1.00       0.250      1.000E-02  0.450         -          -      04_13_13                                
 605             (1,13,14)        NODELAY    15.0       45.0       1.00       0.250      1.000E-02  0.450         -          -      01_13_14                                
 606             (2,13,14)        NODELAY    15.0       70.0       1.00       0.250      1.000E-02  0.450         -          -      02_13_14                                
 607             (3,13,14)        NODELAY    15.0       50.0       1.00       0.250      1.000E-02  0.450         -          -      03_13_14                                
 608             (4,13,14)        NODELAY    15.0       90.0       1.00       0.250      1.000E-02  0.450         -          -      04_13_14                                
 609              (1,14,2)        NODELAY    15.0       45.0       1.00       0.250      1.000E-02  0.450         -          -      01_14_02                                
 610              (2,14,2)        NODELAY    15.0       70.0       1.00       0.250      1.000E-02  0.450         -          -      02_14_02                                
 611              (3,14,2)        NODELAY    15.0       50.0       1.00       0.250      1.000E-02  0.450         -          -      03_14_02                                
 612              (4,14,2)        NODELAY    15.0       90.0       1.00       0.250      1.000E-02  0.450         -          -      04_14_02                                
 613              (1,14,3)        NODELAY    15.0       45.0       1.00       0.250      1.000E-02  0.450         -          -      01_14_03                                
 614              (2,14,3)        NODELAY    15.0       70.0       1.00       0.250      1.000E-02  0.450         -          -      02_14_03                                
 615              (3,14,3)        NODELAY    15.0       50.0       1.00       0.250      1.000E-02  0.450         -          -      03_14_03                                
 616              (4,14,3)        NODELAY    15.0       90.0       1.00       0.250      1.000E-02  0.450         -          -      04_14_03                                
 617              (1,14,4)        NODELAY    15.0       45.0       1.00       0.250      1.000E-02  0.450         -          -      01_14_04                                
 618              (2,14,4)        NODELAY    15.0       70.0       1.00       0.250      1.000E-02  0.450         -          -      02_14_04                                
 619              (3,14,4)        NODELAY    15.0       50.0       1.00       0.250      1.000E-02  0.450         -          -      03_14_04                                
 620              (4,14,4)        NODELAY    15.0       90.0       1.00       0.250      1.000E-02  0.450         -          -      04_14_04                                
 621              (1,14,5)        NODELAY    15.0       45.0       1.00       0.250      1.000E-02  0.450         -          -      01_14_05                                
 622              (2,14,5)        NODELAY    15.0       70.0       1.00       0.250      1.000E-02  0.450         -          -      02_14_05                                
 623              (3,14,5)        NODELAY    15.0       50.0       1.00       0.250      1.000E-02  0.450         -          -      03_14_05                                
 624              (4,14,5)        NODELAY    15.0       90.0       1.00       0.250      1.000E-02  0.450         -          -      04_14_05                                
 625              (1,14,6)        NODELAY    15.0       45.0       1.00       0.250      1.000E-02  0.450         -          -      01_14_06                                
 626              (2,14,6)        NODELAY    15.0       70.0       1.00       0.250      1.000E-02  0.450         -          -      02_14_06                                
 627              (3,14,6)        NODELAY    15.0       50.0       1.00       0.250      1.000E-02  0.450         -          -      03_14_06                                
 628              (4,14,6)        NODELAY    15.0       90.0       1.00       0.250      1.000E-02  0.450         -          -      04_14_06                                
 629              (1,14,7)        NODELAY    15.0       45.0       1.00       0.250      1.000E-02  0.450         -          -      01_14_07                                
 630              (2,14,7)        NODELAY    15.0       70.0       1.00       0.250      1.000E-02  0.450         -          -      02_14_07                                
 631              (3,14,7)        NODELAY    15.0       50.0       1.00       0.250      1.000E-02  0.450         -          -      03_14_07                                
 632              (4,14,7)        NODELAY    15.0       90.0       1.00       0.250      1.000E-02  0.450         -          -      04_14_07                                
 633              (1,14,8)        NODELAY    15.0       45.0       1.00       0.250      1.000E-02  0.450         -          -      01_14_08                                
 634              (2,14,8)        NODELAY    15.0       70.0       1.00       0.250      1.000E-02  0.450         -          -      02_14_08                                
 635              (3,14,8)        NODELAY    15.0       50.0       1.00       0.250      1.000E-02  0.450         -          -      03_14_08                                
 636              (4,14,8)        NODELAY    15.0       90.0       1.00       0.250      1.000E-02  0.450         -          -      04_14_08                                
 637              (1,14,9)        NODELAY    15.0       45.0       1.00       0.250      1.000E-02  0.450         -          -      01_14_09                                
 638              (2,14,9)        NODELAY    15.0       70.0       1.00       0.250      1.000E-02  0.450         -          -      02_14_09                                
 639              (3,14,9)        NODELAY    15.0       50.0       1.00       0.250      1.000E-02  0.450         -          -      03_14_09                                
 640              (4,14,9)        NODELAY    15.0       90.0       1.00       0.250      1.000E-02  0.450         -          -      04_14_09                                
 641             (1,14,10)        NODELAY    15.0       45.0       1.00       0.250      1.000E-02  0.450         -          -      01_14_10                                
 642             (2,14,10)        NODELAY    15.0       70.0       1.00       0.250      1.000E-02  0.450         -          -      02_14_10                                
 643             (3,14,10)        NODELAY    15.0       50.0       1.00       0.250      1.000E-02  0.450         -          -      03_14_10                                
 644             (4,14,10)        NODELAY    15.0       90.0       1.00       0.250      1.000E-02  0.450         -          -      04_14_10                                
 645             (1,14,11)        NODELAY    15.0       45.0       1.00       0.250      1.000E-02  0.450         -          -      01_14_11                                
 646             (2,14,11)        NODELAY    15.0       70.0       1.00       0.250      1.000E-02  0.450         -          -      02_14_11                                
 647             (3,14,11)        NODELAY    15.0       50.0       1.00       0.250      1.000E-02  0.450         -          -      03_14_11                                
 648             (4,14,11)        NODELAY    15.0       90.0       1.00       0.250      1.000E-02  0.450         -          -      04_14_11                                
 649             (1,14,12)        NODELAY    15.0       45.0       1.00       0.250      1.000E-02  0.450         -          -      01_14_12                                
 650             (2,14,12)        NODELAY    15.0       70.0       1.00       0.250      1.000E-02  0.450         -          -      02_14_12                                
 651             (3,14,12)        NODELAY    15.0       50.0       1.00       0.250      1.000E-02  0.450         -          -      03_14_12                                
 652             (4,14,12)        NODELAY    15.0       90.0       1.00       0.250      1.000E-02  0.450         -          -      04_14_12                                
 653             (1,14,13)        NODELAY    15.0       45.0       1.00       0.250      1.000E-02  0.450         -          -      01_14_13                                
 654             (2,14,13)        NODELAY    15.0       70.0       1.00       0.250      1.000E-02  0.450         -          -      02_14_13                                
 655             (3,14,13)        NODELAY    15.0       50.0       1.00       0.250      1.000E-02  0.450         -          -      03_14_13                                
 656             (4,14,13)        NODELAY    15.0       90.0       1.00       0.250      1.000E-02  0.450         -          -      04_14_13                                
 657             (1,14,14)        NODELAY    15.0       45.0       1.00       0.250      1.000E-02  0.450         -          -      01_14_14                                
 658             (2,14,14)        NODELAY    15.0       70.0       1.00       0.250      1.000E-02  0.450         -          -      02_14_14                                
 659             (3,14,14)        NODELAY    15.0       50.0       1.00       0.250      1.000E-02  0.450         -          -      03_14_14                                
 660             (4,14,14)        NODELAY    15.0       90.0       1.00       0.250      1.000E-02  0.450         -          -      04_14_14                                
 661              (1,15,3)        NODELAY    15.0       45.0       1.00       0.250      1.000E-02  0.450         -          -      01_15_03                                
 662              (2,15,3)        NODELAY    15.0       70.0       1.00       0.250      1.000E-02  0.450         -          -      02_15_03                                
 663              (3,15,3)        NODELAY    15.0       50.0       1.00       0.250      1.000E-02  0.450         -          -      03_15_03                                
 664              (4,15,3)        NODELAY    15.0       90.0       1.00       0.250      1.000E-02  0.450         -          -      04_15_03                                
 665              (1,15,4)        NODELAY    15.0       45.0       1.00       0.250      1.000E-02  0.450         -          -      01_15_04                                
 666              (2,15,4)        NODELAY    15.0       70.0       1.00       0.250      1.000E-02  0.450         -          -      02_15_04                                
 667              (3,15,4)        NODELAY    15.0       50.0       1.00       0.250      1.000E-02  0.450         -          -      03_15_04                                
 668              (4,15,4)        NODELAY    15.0       90.0       1.00       0.250      1.000E-02  0.450         -          -      04_15_04                                
 669              (1,15,5)        NODELAY    15.0       45.0       1.00       0.250      1.000E-02  0.450         -          -      01_15_05                                
 670              (2,15,5)        NODELAY    15.0       70.0       1.00       0.250      1.000E-02  0.450         -          -      02_15_05                                
 671              (3,15,5)        NODELAY    15.0       50.0       1.00       0.250      1.000E-02  0.450         -          -      03_15_05                                
 672              (4,15,5)        NODELAY    15.0       90.0       1.00       0.250      1.000E-02  0.450         -          -      04_15_05                                
 673              (1,15,6)        NODELAY    15.0       45.0       1.00       0.250      1.000E-02  0.450         -          -      01_15_06                                
 674              (2,15,6)        NODELAY    15.0       70.0       1.00       0.250      1.000E-02  0.450         -          -      02_15_06                                
 675              (3,15,6)        NODELAY    15.0       50.0       1.00       0.250      1.000E-02  0.450         -          -      03_15_06                                
 676              (4,15,6)        NODELAY    15.0       90.0       1.00       0.250      1.000E-02  0.450         -          -      04_15_06                                
 677              (1,15,7)        NODELAY    15.0       45.0       1.00       0.250      1.000E-02  0.450         -          -      01_15_07                                
 678              (2,15,7)        NODELAY    15.0       70.0       1.00       0.250      1.000E-02  0.450         -          -      02_15_07                                
 679              (3,15,7)        NODELAY    15.0       50.0       1.00       0.250      1.000E-02  0.450         -          -      03_15_07                                
 680              (4,15,7)        NODELAY    15.0       90.0       1.00       0.250      1.000E-02  0.450         -          -      04_15_07                                
 681              (1,15,8)        NODELAY    15.0       45.0       1.00       0.250      1.000E-02  0.450         -          -      01_15_08                                
 682              (2,15,8)        NODELAY    15.0       70.0       1.00       0.250      1.000E-02  0.450         -          -      02_15_08                                
 683              (3,15,8)        NODELAY    15.0       50.0       1.00       0.250      1.000E-02  0.450         -          -      03_15_08                                
 684              (4,15,8)        NODELAY    15.0       90.0       1.00       0.250      1.000E-02  0.450         -          -      04_15_08                                
 685              (1,15,9)        NODELAY    15.0       45.0       1.00       0.250      1.000E-02  0.450         -          -      01_15_09                                
 686              (2,15,9)        NODELAY    15.0       70.0       1.00       0.250      1.000E-02  0.450         -          -      02_15_09                                
 687              (3,15,9)        NODELAY    15.0       50.0       1.00       0.250      1.000E-02  0.450         -          -      03_15_09                                
 688              (4,15,9)        NODELAY    15.0       90.0       1.00       0.250      1.000E-02  0.450         -          -      04_15_09                                
 689             (1,15,10)        NODELAY    15.0       45.0       1.00       0.250      1.000E-02  0.450         -          -      01_15_10                                
 690             (2,15,10)        NODELAY    15.0       70.0       1.00       0.250      1.000E-02  0.450         -          -      02_15_10                                
 691             (3,15,10)        NODELAY    15.0       50.0       1.00       0.250      1.000E-02  0.450         -          -      03_15_10                                
 692             (4,15,10)        NODELAY    15.0       90.0       1.00       0.250      1.000E-02  0.450         -          -      04_15_10                                
 693             (1,15,11)        NODELAY    15.0       45.0       1.00       0.250      1.000E-02  0.450         -          -      01_15_11                                
 694             (2,15,11)        NODELAY    15.0       70.0       1.00       0.250      1.000E-02  0.450         -          -      02_15_11                                
 695             (3,15,11)        NODELAY    15.0       50.0       1.00       0.250      1.000E-02  0.450         -          -      03_15_11                                
 696             (4,15,11)        NODELAY    15.0       90.0       1.00       0.250      1.000E-02  0.450         -          -      04_15_11                                
 697             (1,15,12)        NODELAY    15.0       45.0       1.00       0.250      1.000E-02  0.450         -          -      01_15_12                                
 698             (2,15,12)        NODELAY    15.0       70.0       1.00       0.250      1.000E-02  0.450         -          -      02_15_12                                
 699             (3,15,12)        NODELAY    15.0       50.0       1.00       0.250      1.000E-02  0.450         -          -      03_15_12                                
 700             (4,15,12)        NODELAY    15.0       90.0       1.00       0.250      1.000E-02  0.450         -          -      04_15_12                                
 701             (1,15,13)        NODELAY    15.0       45.0       1.00       0.250      1.000E-02  0.450         -          -      01_15_13                                
 702             (2,15,13)        NODELAY    15.0       70.0       1.00       0.250      1.000E-02  0.450         -          -      02_15_13                                
 703             (3,15,13)        NODELAY    15.0       50.0       1.00       0.250      1.000E-02  0.450         -          -      03_15_13                                
 704             (4,15,13)        NODELAY    15.0       90.0       1.00       0.250      1.000E-02  0.450         -          -      04_15_13                                
 705              (1,16,3)        NODELAY    15.0       45.0       1.00       0.250      1.000E-02  0.450         -          -      01_16_03                                
 706              (2,16,3)        NODELAY    15.0       70.0       1.00       0.250      1.000E-02  0.450         -          -      02_16_03                                
 707              (3,16,3)        NODELAY    15.0       50.0       1.00       0.250      1.000E-02  0.450         -          -      03_16_03                                
 708              (4,16,3)        NODELAY    15.0       90.0       1.00       0.250      1.000E-02  0.450         -          -      04_16_03                                
 709              (1,16,4)        NODELAY    15.0       45.0       1.00       0.250      1.000E-02  0.450         -          -      01_16_04                                
 710              (2,16,4)        NODELAY    15.0       70.0       1.00       0.250      1.000E-02  0.450         -          -      02_16_04                                
 711              (3,16,4)        NODELAY    15.0       50.0       1.00       0.250      1.000E-02  0.450         -          -      03_16_04                                
 712              (4,16,4)        NODELAY    15.0       90.0       1.00       0.250      1.000E-02  0.450         -          -      04_16_04                                
 713              (1,16,5)        NODELAY    15.0       45.0       1.00       0.250      1.000E-02  0.450         -          -      01_16_05                                
 714              (2,16,5)        NODELAY    15.0       70.0       1.00       0.250      1.000E-02  0.450         -          -      02_16_05                                
 715              (3,16,5)        NODELAY    15.0       50.0       1.00       0.250      1.000E-02  0.450         -          -      03_16_05                                
 716              (4,16,5)        NODELAY    15.0       90.0       1.00       0.250      1.000E-02  0.450         -          -      04_16_05                                
 717              (1,16,6)        NODELAY    15.0       45.0       1.00       0.250      1.000E-02  0.450         -          -      01_16_06                                
 718              (2,16,6)        NODELAY    15.0       70.0       1.00       0.250      1.000E-02  0.450         -          -      02_16_06                                
 719              (3,16,6)        NODELAY    15.0       50.0       1.00       0.250      1.000E-02  0.450         -          -      03_16_06                                
 720              (4,16,6)        NODELAY    15.0       90.0       1.00       0.250      1.000E-02  0.450         -          -      04_16_06                                
 721              (1,16,7)        NODELAY    15.0       45.0       1.00       0.250      1.000E-02  0.450         -          -      01_16_07                                
 722              (2,16,7)        NODELAY    15.0       70.0       1.00       0.250      1.000E-02  0.450         -          -      02_16_07                                
 723              (3,16,7)        NODELAY    15.0       50.0       1.00       0.250      1.000E-02  0.450         -          -      03_16_07                                
 724              (4,16,7)        NODELAY    15.0       90.0       1.00       0.250      1.000E-02  0.450         -          -      04_16_07                                
 725              (1,16,8)        NODELAY    15.0       45.0       1.00       0.250      1.000E-02  0.450         -          -      01_16_08                                
 726              (2,16,8)        NODELAY    15.0       70.0       1.00       0.250      1.000E-02  0.450         -          -      02_16_08                                
 727              (3,16,8)        NODELAY    15.0       50.0       1.00       0.250      1.000E-02  0.450         -          -      03_16_08                                
 728              (4,16,8)        NODELAY    15.0       90.0       1.00       0.250      1.000E-02  0.450         -          -      04_16_08                                
 729              (1,16,9)        NODELAY    15.0       45.0       1.00       0.250      1.000E-02  0.450         -          -      01_16_09                                
 730              (2,16,9)        NODELAY    15.0       70.0       1.00       0.250      1.000E-02  0.450         -          -      02_16_09                                
 731              (3,16,9)        NODELAY    15.0       50.0       1.00       0.250      1.000E-02  0.450         -          -      03_16_09                                
 732              (4,16,9)        NODELAY    15.0       90.0       1.00       0.250      1.000E-02  0.450         -          -      04_16_09                                
 733             (1,16,10)        NODELAY    15.0       45.0       1.00       0.250      1.000E-02  0.450         -          -      01_16_10                                
 734             (2,16,10)        NODELAY    15.0       70.0       1.00       0.250      1.000E-02  0.450         -          -      02_16_10                                
 735             (3,16,10)        NODELAY    15.0       50.0       1.00       0.250      1.000E-02  0.450         -          -      03_16_10                                
 736             (4,16,10)        NODELAY    15.0       90.0       1.00       0.250      1.000E-02  0.450         -          -      04_16_10                                
 737             (1,16,11)        NODELAY    15.0       45.0       1.00       0.250      1.000E-02  0.450         -          -      01_16_11                                
 738             (2,16,11)        NODELAY    15.0       70.0       1.00       0.250      1.000E-02  0.450         -          -      02_16_11                                
 739             (3,16,11)        NODELAY    15.0       50.0       1.00       0.250      1.000E-02  0.450         -          -      03_16_11                                
 740             (4,16,11)        NODELAY    15.0       90.0       1.00       0.250      1.000E-02  0.450         -          -      04_16_11                                
 741             (1,16,12)        NODELAY    15.0       45.0       1.00       0.250      1.000E-02  0.450         -          -      01_16_12                                
 742             (2,16,12)        NODELAY    15.0       70.0       1.00       0.250      1.000E-02  0.450         -          -      02_16_12                                
 743             (3,16,12)        NODELAY    15.0       50.0       1.00       0.250      1.000E-02  0.450         -          -      03_16_12                                
 744             (4,16,12)        NODELAY    15.0       90.0       1.00       0.250      1.000E-02  0.450         -          -      04_16_12                                
 745             (1,16,13)        NODELAY    15.0       45.0       1.00       0.250      1.000E-02  0.450         -          -      01_16_13                                
 746             (2,16,13)        NODELAY    15.0       70.0       1.00       0.250      1.000E-02  0.450         -          -      02_16_13                                
 747             (3,16,13)        NODELAY    15.0       50.0       1.00       0.250      1.000E-02  0.450         -          -      03_16_13                                
 748             (4,16,13)        NODELAY    15.0       90.0       1.00       0.250      1.000E-02  0.450         -          -      04_16_13                                
 749              (1,17,4)        NODELAY    15.0       45.0       1.00       0.250      1.000E-02  0.450         -          -      01_17_04                                
 750              (2,17,4)        NODELAY    15.0       70.0       1.00       0.250      1.000E-02  0.450         -          -      02_17_04                                
 751              (3,17,4)        NODELAY    15.0       50.0       1.00       0.250      1.000E-02  0.450         -          -      03_17_04                                
 752              (4,17,4)        NODELAY    15.0       90.0       1.00       0.250      1.000E-02  0.450         -          -      04_17_04                                
 753              (1,17,5)        NODELAY    15.0       45.0       1.00       0.250      1.000E-02  0.450         -          -      01_17_05                                
 754              (2,17,5)        NODELAY    15.0       70.0       1.00       0.250      1.000E-02  0.450         -          -      02_17_05                                
 755              (3,17,5)        NODELAY    15.0       50.0       1.00       0.250      1.000E-02  0.450         -          -      03_17_05                                
 756              (4,17,5)        NODELAY    15.0       90.0       1.00       0.250      1.000E-02  0.450         -          -      04_17_05                                
 757              (1,17,6)        NODELAY    15.0       45.0       1.00       0.250      1.000E-02  0.450         -          -      01_17_06                                
 758              (2,17,6)        NODELAY    15.0       70.0       1.00       0.250      1.000E-02  0.450         -          -      02_17_06                                
 759              (3,17,6)        NODELAY    15.0       50.0       1.00       0.250      1.000E-02  0.450         -          -      03_17_06                                
 760              (4,17,6)        NODELAY    15.0       90.0       1.00       0.250      1.000E-02  0.450         -          -      04_17_06                                
 761              (1,17,7)        NODELAY    15.0       45.0       1.00       0.250      1.000E-02  0.450         -          -      01_17_07                                
 762              (2,17,7)        NODELAY    15.0       70.0       1.00       0.250      1.000E-02  0.450         -          -      02_17_07                                
 763              (3,17,7)        NODELAY    15.0       50.0       1.00       0.250      1.000E-02  0.450         -          -      03_17_07                                
 764              (4,17,7)        NODELAY    15.0       90.0       1.00       0.250      1.000E-02  0.450         -          -      04_17_07                                
 765              (1,17,8)        NODELAY    15.0       45.0       1.00       0.250      1.000E-02  0.450         -          -      01_17_08                                
 766              (2,17,8)        NODELAY    15.0       70.0       1.00       0.250      1.000E-02  0.450         -          -      02_17_08                                
 767              (3,17,8)        NODELAY    15.0       50.0       1.00       0.250      1.000E-02  0.450         -          -      03_17_08                                
 768              (4,17,8)        NODELAY    15.0       90.0       1.00       0.250      1.000E-02  0.450         -          -      04_17_08                                
 769              (1,17,9)        NODELAY    15.0       45.0       1.00       0.250      1.000E-02  0.450         -          -      01_17_09                                
 770              (2,17,9)        NODELAY    15.0       70.0       1.00       0.250      1.000E-02  0.450         -          -      02_17_09                                
 771              (3,17,9)        NODELAY    15.0       50.0       1.00       0.250      1.000E-02  0.450         -          -      03_17_09                                
 772              (4,17,9)        NODELAY    15.0       90.0       1.00       0.250      1.000E-02  0.450         -          -      04_17_09                                
 773             (1,17,10)        NODELAY    15.0       45.0       1.00       0.250      1.000E-02  0.450         -          -      01_17_10                                
 774             (2,17,10)        NODELAY    15.0       70.0       1.00       0.250      1.000E-02  0.450         -          -      02_17_10                                
 775             (3,17,10)        NODELAY    15.0       50.0       1.00       0.250      1.000E-02  0.450         -          -      03_17_10                                
 776             (4,17,10)        NODELAY    15.0       90.0       1.00       0.250      1.000E-02  0.450         -          -      04_17_10                                
 777             (1,17,11)        NODELAY    15.0       45.0       1.00       0.250      1.000E-02  0.450         -          -      01_17_11                                
 778             (2,17,11)        NODELAY    15.0       70.0       1.00       0.250      1.000E-02  0.450         -          -      02_17_11                                
 779             (3,17,11)        NODELAY    15.0       50.0       1.00       0.250      1.000E-02  0.450         -          -      03_17_11                                
 780             (4,17,11)        NODELAY    15.0       90.0       1.00       0.250      1.000E-02  0.450         -          -      04_17_11                                
 781             (1,17,12)        NODELAY    15.0       45.0       1.00       0.250      1.000E-02  0.450         -          -      01_17_12                                
 782             (2,17,12)        NODELAY    15.0       70.0       1.00       0.250      1.000E-02  0.450         -          -      02_17_12                                
 783             (3,17,12)        NODELAY    15.0       50.0       1.00       0.250      1.000E-02  0.450         -          -      03_17_12                                
 784             (4,17,12)        NODELAY    15.0       90.0       1.00       0.250      1.000E-02  0.450         -          -      04_17_12                                
 785             (1,17,13)        NODELAY    15.0       45.0       1.00       0.250      1.000E-02  0.450         -          -      01_17_13                                
 786             (2,17,13)        NODELAY    15.0       70.0       1.00       0.250      1.000E-02  0.450         -          -      02_17_13                                
 787             (3,17,13)        NODELAY    15.0       50.0       1.00       0.250      1.000E-02  0.450         -          -      03_17_13                                
 788             (4,17,13)        NODELAY    15.0       90.0       1.00       0.250      1.000E-02  0.450         -          -      04_17_13                                
 789              (1,18,4)        NODELAY    15.0       45.0       1.00       0.250      1.000E-02  0.450         -          -      01_18_04                                
 790              (2,18,4)        NODELAY    15.0       70.0       1.00       0.250      1.000E-02  0.450         -          -      02_18_04                                
 791              (3,18,4)        NODELAY    15.0       50.0       1.00       0.250      1.000E-02  0.450         -          -      03_18_04                                
 792              (4,18,4)        NODELAY    15.0       90.0       1.00       0.250      1.000E-02  0.450         -          -      04_18_04                                
 793              (1,18,5)        NODELAY    15.0       45.0       1.00       0.250      1.000E-02  0.450         -          -      01_18_05                                
 794              (2,18,5)        NODELAY    15.0       70.0       1.00       0.250      1.000E-02  0.450         -          -      02_18_05                                
 795              (3,18,5)        NODELAY    15.0       50.0       1.00       0.250      1.000E-02  0.450         -          -      03_18_05                                
 796              (4,18,5)        NODELAY    15.0       90.0       1.00       0.250      1.000E-02  0.450         -          -      04_18_05                                
 797              (1,18,6)        NODELAY    15.0       45.0       1.00       0.250      1.000E-02  0.450         -          -      01_18_06                                
 798              (2,18,6)        NODELAY    15.0       70.0       1.00       0.250      1.000E-02  0.450         -          -      02_18_06                                
 799              (3,18,6)        NODELAY    15.0       50.0       1.00       0.250      1.000E-02  0.450         -          -      03_18_06                                
 800              (4,18,6)        NODELAY    15.0       90.0       1.00       0.250      1.000E-02  0.450         -          -      04_18_06                                
 801              (1,18,7)        NODELAY    15.0       45.0       1.00       0.250      1.000E-02  0.450         -          -      01_18_07                                
 802              (2,18,7)        NODELAY    15.0       70.0       1.00       0.250      1.000E-02  0.450         -          -      02_18_07                                
 803              (3,18,7)        NODELAY    15.0       50.0       1.00       0.250      1.000E-02  0.450         -          -      03_18_07                                
 804              (4,18,7)        NODELAY    15.0       90.0       1.00       0.250      1.000E-02  0.450         -          -      04_18_07                                
 805              (1,18,8)        NODELAY    15.0       45.0       1.00       0.250      1.000E-02  0.450         -          -      01_18_08                                
 806              (2,18,8)        NODELAY    15.0       70.0       1.00       0.250      1.000E-02  0.450         -          -      02_18_08                                
 807              (3,18,8)        NODELAY    15.0       50.0       1.00       0.250      1.000E-02  0.450         -          -      03_18_08                                
 808              (4,18,8)        NODELAY    15.0       90.0       1.00       0.250      1.000E-02  0.450         -          -      04_18_08                                
 809              (1,18,9)        NODELAY    15.0       45.0       1.00       0.250      1.000E-02  0.450         -          -      01_18_09                                
 810              (2,18,9)        NODELAY    15.0       70.0       1.00       0.250      1.000E-02  0.450         -          -      02_18_09                                
 811              (3,18,9)        NODELAY    15.0       50.0       1.00       0.250      1.000E-02  0.450         -          -      03_18_09                                
 812              (4,18,9)        NODELAY    15.0       90.0       1.00       0.250      1.000E-02  0.450         -          -      04_18_09                                
 813             (1,18,10)        NODELAY    15.0       45.0       1.00       0.250      1.000E-02  0.450         -          -      01_18_10                                
 814             (2,18,10)        NODELAY    15.0       70.0       1.00       0.250      1.000E-02  0.450         -          -      02_18_10                                
 815             (3,18,10)        NODELAY    15.0       50.0       1.00       0.250      1.000E-02  0.450         -          -      03_18_10                                
 816             (4,18,10)        NODELAY    15.0       90.0       1.00       0.250      1.000E-02  0.450         -          -      04_18_10                                
 817             (1,18,11)        NODELAY    15.0       45.0       1.00       0.250      1.000E-02  0.450         -          -      01_18_11                                
 818             (2,18,11)        NODELAY    15.0       70.0       1.00       0.250      1.000E-02  0.450         -          -      02_18_11                                
 819             (3,18,11)        NODELAY    15.0       50.0       1.00       0.250      1.000E-02  0.450         -          -      03_18_11                                
 820             (4,18,11)        NODELAY    15.0       90.0       1.00       0.250      1.000E-02  0.450         -          -      04_18_11                                
 821             (1,18,12)        NODELAY    15.0       45.0       1.00       0.250      1.000E-02  0.450         -          -      01_18_12                                
 822             (2,18,12)        NODELAY    15.0       70.0       1.00       0.250      1.000E-02  0.450         -          -      02_18_12                                
 823             (3,18,12)        NODELAY    15.0       50.0       1.00       0.250      1.000E-02  0.450         -          -      03_18_12                                
 824             (4,18,12)        NODELAY    15.0       90.0       1.00       0.250      1.000E-02  0.450         -          -      04_18_12                                
 825              (1,19,7)        NODELAY    15.0       45.0       1.00       0.250      1.000E-02  0.450         -          -      01_19_07                                
 826              (2,19,7)        NODELAY    15.0       70.0       1.00       0.250      1.000E-02  0.450         -          -      02_19_07                                
 827              (3,19,7)        NODELAY    15.0       50.0       1.00       0.250      1.000E-02  0.450         -          -      03_19_07                                
 828              (4,19,7)        NODELAY    15.0       90.0       1.00       0.250      1.000E-02  0.450         -          -      04_19_07                                
 829              (1,19,8)        NODELAY    15.0       45.0       1.00       0.250      1.000E-02  0.450         -          -      01_19_08                                
 830              (2,19,8)        NODELAY    15.0       70.0       1.00       0.250      1.000E-02  0.450         -          -      02_19_08                                
 831              (3,19,8)        NODELAY    15.0       50.0       1.00       0.250      1.000E-02  0.450         -          -      03_19_08                                
 832              (4,19,8)        NODELAY    15.0       90.0       1.00       0.250      1.000E-02  0.450         -          -      04_19_08                                
 833              (1,19,9)        NODELAY    15.0       45.0       1.00       0.250      1.000E-02  0.450         -          -      01_19_09                                
 834              (2,19,9)        NODELAY    15.0       70.0       1.00       0.250      1.000E-02  0.450         -          -      02_19_09                                
 835              (3,19,9)        NODELAY    15.0       50.0       1.00       0.250      1.000E-02  0.450         -          -      03_19_09                                
 836              (4,19,9)        NODELAY    15.0       90.0       1.00       0.250      1.000E-02  0.450         -          -      04_19_09                                
 837             (1,19,10)        NODELAY    15.0       45.0       1.00       0.250      1.000E-02  0.450         -          -      01_19_10                                
 838             (2,19,10)        NODELAY    15.0       70.0       1.00       0.250      1.000E-02  0.450         -          -      02_19_10                                
 839             (3,19,10)        NODELAY    15.0       50.0       1.00       0.250      1.000E-02  0.450         -          -      03_19_10                                
 840             (4,19,10)        NODELAY    15.0       90.0       1.00       0.250      1.000E-02  0.450         -          -      04_19_10                                
 ---------------------------------------------------------------------------------------------------------------------------------------------------------------------------



The observation utility is active for "EX-GWF-CSUB-P04"
 # File generated by Flopy version 3.3.5 on 03/04/2022 at 11:13:53.

Processing observation options:

Text output number of digits of precision set to: 10
The PRINT_INPUT option has been specified.


 OBSERVATIONS READ FROM FILE "ex-gwf-csub-p04.obs"
 ----------------------------------------------------------------------------------------------------------------------------------------------------------------------------------------------------------------------------
 NAME                                     TYPE                                       TIME         LOCATION DATA                              OUTPUT FILENAME                                                                 
 ----------------------------------------------------------------------------------------------------------------------------------------------------------------------------------------------------------------------------
 H1L1                                     CONTINUOUS  HEAD                           ALL TIMES    "  1 9 10"                                 gwf_obs.csv                                                                     
 H1L2                                     CONTINUOUS  HEAD                           ALL TIMES    "  2 9 10"                                 gwf_obs.csv                                                                     
 H1L3                                     CONTINUOUS  HEAD                           ALL TIMES    "  3 9 10"                                 gwf_obs.csv                                                                     
 H1L4                                     CONTINUOUS  HEAD                           ALL TIMES    "  4 9 10"                                 gwf_obs.csv                                                                     
 H2L1                                     CONTINUOUS  HEAD                           ALL TIMES    "  1 12 7"                                 gwf_obs.csv                                                                     
 H2L2                                     CONTINUOUS  HEAD                           ALL TIMES    "  2 12 7"                                 gwf_obs.csv                                                                     
 H3L2                                     CONTINUOUS  HEAD                           ALL TIMES    "  3 12 7"                                 gwf_obs.csv                                                                     
 H4L2                                     CONTINUOUS  HEAD                           ALL TIMES    "  4 12 7"                                 gwf_obs.csv                                                                     
 ----------------------------------------------------------------------------------------------------------------------------------------------------------------------------------------------------------------------------


    BINARY GRID INFORMATION WILL BE WRITTEN TO:
      UNIT NUMBER: 1019
      FILE NAME: C:\Users\charlton\source\repos\modflow\mf6.3.0\examples\ex-gwf-csub-p04\ex-gwf-csub-p04.dis.grb

 OPENED C:\Users\charlton\source\repos\modflow\mf6.3.0\examples\ex-gwf-csub-p04\ex-gwf-csub-p04.dis.grb
 FILE TYPE:DATA(BINARY)   UNIT 1019   STATUS:REPLACE             
 FORMAT:UNFORMATTED            ACCESS:STREAM              
 ACTION:READWRITE           

      THE LAST TIME STEP WILL BE PRINTED
      THE LAST TIME STEP WILL BE PRINTED
 # File generated by Flopy version 3.3.5 on 03/04/2022 at 11:13:53.

 PROCESSING OC OPTIONS

    BUDGET INFORMATION WILL BE WRITTEN TO:
      UNIT NUMBER: 1020
      FILE NAME: ex-gwf-csub-p04.cbc

 OPENED ex-gwf-csub-p04.cbc
 FILE TYPE:DATA(BINARY)   UNIT 1020   STATUS:REPLACE             
 FORMAT:UNFORMATTED            ACCESS:STREAM              
 ACTION:READWRITE           

    HEAD INFORMATION WILL BE WRITTEN TO:
      UNIT NUMBER: 1021
      FILE NAME: ex-gwf-csub-p04.hds

 OPENED ex-gwf-csub-p04.hds
 FILE TYPE:DATA(BINARY)   UNIT 1021   STATUS:REPLACE             
 FORMAT:UNFORMATTED            ACCESS:STREAM              
 ACTION:READWRITE           

 END OF OC OPTIONS

start timestep kper="1" kstp="1" mode="normal"


 BEGIN READING OUTPUT CONTROL FOR STRESS PERIOD 1
      ALL TIME STEPS WILL BE SAVED
      ALL TIME STEPS WILL BE SAVED
      ALL TIME STEPS WILL BE PRINTED

 END READING OUTPUT CONTROL FOR STRESS PERIOD 1


 PROCESSING STORAGE PERIOD DATA
 END PROCESSING STORAGE PERIOD DATA


 STRESS PERIOD 1 IS STEADY-STATE


 REUSING CSUBS FROM LAST STRESS PERIOD

 REUSING WELS FROM LAST STRESS PERIOD
 UBDSV1 SAVING           STO-SS ON UNIT   1020 AT TIME STEP      1, STRESS PERIOD      1
 UBDSV1 SAVING           STO-SY ON UNIT   1020 AT TIME STEP      1, STRESS PERIOD      1
 UBDSV1 SAVING     FLOW-JA-FACE ON UNIT   1020 AT TIME STEP      1, STRESS PERIOD      1
 UBDSV06 SAVING       DATA-SPDIS IN MODEL EX-GWF-CSUB-P04  PACKAGE NPF             CONNECTED TO MODEL EX-GWF-CSUB-P04  PACKAGE NPF              ON UNIT   1020 AT TIME STEP      1, STRESS PERIOD      1
 UBDSV1 SAVING  CSUB-CGELASTIC  ON UNIT   1020 AT TIME STEP      1, STRESS PERIOD      1
 UBDSV06 SAVING    CSUB-ELASTIC  IN MODEL EX-GWF-CSUB-P04  PACKAGE EX-GWF-CSUB-P04 CONNECTED TO MODEL EX-GWF-CSUB-P04  PACKAGE CSUB             ON UNIT   1020 AT TIME STEP      1, STRESS PERIOD      1
 UBDSV06 SAVING  CSUB-INELASTIC  IN MODEL EX-GWF-CSUB-P04  PACKAGE EX-GWF-CSUB-P04 CONNECTED TO MODEL EX-GWF-CSUB-P04  PACKAGE CSUB             ON UNIT   1020 AT TIME STEP      1, STRESS PERIOD      1
 UBDSV1 SAVING  CSUB-WATERCOMP  ON UNIT   1020 AT TIME STEP      1, STRESS PERIOD      1
 UBDSV06 SAVING              WEL IN MODEL EX-GWF-CSUB-P04  PACKAGE EX-GWF-CSUB-P04 CONNECTED TO MODEL EX-GWF-CSUB-P04  PACKAGE WEL_0            ON UNIT   1020 AT TIME STEP      1, STRESS PERIOD      1
 UBDSV06 SAVING              RCH IN MODEL EX-GWF-CSUB-P04  PACKAGE EX-GWF-CSUB-P04 CONNECTED TO MODEL EX-GWF-CSUB-P04  PACKAGE RCH_0            ON UNIT   1020 AT TIME STEP      1, STRESS PERIOD      1
 UBDSV06 SAVING              CHD IN MODEL EX-GWF-CSUB-P04  PACKAGE EX-GWF-CSUB-P04 CONNECTED TO MODEL EX-GWF-CSUB-P04  PACKAGE CHD_0            ON UNIT   1020 AT TIME STEP      1, STRESS PERIOD      1

 HEAD WILL BE SAVED ON UNIT 1021 AT END OF TIME STEP    1, STRESS PERIOD    1


  VOLUME BUDGET FOR ENTIRE MODEL AT END OF TIME STEP    1, STRESS PERIOD   1
  ---------------------------------------------------------------------------------------------------

     CUMULATIVE VOLUME      L**3       RATES FOR THIS TIME STEP      L**3/T          PACKAGE NAME    
     ------------------                 ------------------------                     ----------------

           IN:                                      IN:
           ---                                      ---
              STO-SS =           0.0000                STO-SS =           0.0000     STORAGE                          
              STO-SY =           0.0000                STO-SY =           0.0000     STORAGE                          
      CSUB-CGELASTIC =           0.0000        CSUB-CGELASTIC =           0.0000     CSUB                             
        CSUB-ELASTIC =           0.0000          CSUB-ELASTIC =           0.0000     CSUB                             
      CSUB-INELASTIC =           0.0000        CSUB-INELASTIC =           0.0000     CSUB                             
      CSUB-WATERCOMP =           0.0000        CSUB-WATERCOMP =           0.0000     CSUB                             
                 WEL =           0.0000                   WEL =           0.0000     WEL_0                            
                 RCH =           0.0000                   RCH =       39600.0000     RCH_0                            
                 CHD =           0.0000                   CHD =           0.0000     CHD_0                            

            TOTAL IN =           0.0000              TOTAL IN =       39600.0000

          OUT:                                     OUT:
          ----                                     ----
              STO-SS =           0.0000                STO-SS =           0.0000     STORAGE                          
              STO-SY =           0.0000                STO-SY =           0.0000     STORAGE                          
      CSUB-CGELASTIC =           0.0000        CSUB-CGELASTIC =           0.0000     CSUB                             
        CSUB-ELASTIC =           0.0000          CSUB-ELASTIC =           0.0000     CSUB                             
      CSUB-INELASTIC =           0.0000        CSUB-INELASTIC =           0.0000     CSUB                             
      CSUB-WATERCOMP =           0.0000        CSUB-WATERCOMP =           0.0000     CSUB                             
                 WEL =           0.0000                   WEL =           0.0000     WEL_0                            
                 RCH =           0.0000                   RCH =           0.0000     RCH_0                            
                 CHD =           0.0000                   CHD =       39600.0000     CHD_0                            

           TOTAL OUT =           0.0000             TOTAL OUT =       39600.0000

            IN - OUT =           0.0000              IN - OUT =      -1.1807E-07

 PERCENT DISCREPANCY =           0.00     PERCENT DISCREPANCY =          -0.00




         TIME SUMMARY AT END OF TIME STEP    1 IN STRESS PERIOD    1
                    SECONDS     MINUTES      HOURS       DAYS        YEARS
                    -----------------------------------------------------------
   TIME STEP LENGTH  0.0000      0.0000      0.0000      0.0000      0.0000    
 STRESS PERIOD TIME  0.0000      0.0000      0.0000      0.0000      0.0000    
         TOTAL TIME  0.0000      0.0000      0.0000      0.0000      0.0000    


end timestep


start timestep kper="2" kstp="1" mode="normal"


 END OF FILE DETECTED IN OUTPUT CONTROL.
 CURRENT OUTPUT CONTROL SETTINGS WILL BE 
 REPEATED UNTIL THE END OF THE SIMULATION.

 OUTPUT CONTROL FOR STRESS PERIOD 2 IS REPEATED USING SETTINGS FROM A PREVIOUS STRESS PERIOD.


 PROCESSING STORAGE PERIOD DATA
 END PROCESSING STORAGE PERIOD DATA


 STRESS PERIOD 2 IS TRANSIENT


 REUSING CSUBS FROM LAST STRESS PERIOD

 REUSING RCHS FROM LAST STRESS PERIOD

 REUSING CHDS FROM LAST STRESS PERIOD

 CSUB PACKAGE CALCULATED INITIAL INTERBED STRESSES AT THE CELL BOTTOM
 ---------------------------------------------------------------------------------------------------------------------------
 INTERBED                                                          PRECONSOLIDATION                                         
 NUMBER            CELLID        GEOSTATIC STRESS EFFECTIVE STRESS      STRESS      BOUNDNAME                               
 ---------------------------------------------------------------------------------------------------------------------------
 1                (1,1,6)         203.722316       111.576399       126.576399      01_01_06                                
 2                (2,1,6)         511.222316       269.076643       284.076643      02_01_06                                
 3                (3,1,6)         608.222316       316.128064       331.128064      03_01_06                                
 4                (4,1,6)         1020.22232       528.179610       543.179610      04_01_06                                
 5                (1,1,7)         203.771282       111.456516       126.456516      01_01_07                                
 6                (2,1,7)         511.271282       268.957016       283.957016      02_01_07                                
 7                (3,1,7)         608.271282       316.057051       331.057051      03_01_07                                
 8                (4,1,7)         1020.27128       528.157328       543.157328      04_01_07                                
 9                (1,1,8)         203.951513       111.015260       126.015260      01_01_08                                
 10               (2,1,8)         511.451513       268.527424       283.527424      02_01_08                                
 11               (3,1,8)         608.451513       315.863150       330.863150      03_01_08                                
 12               (4,1,8)         1020.45151       528.199335       543.199335      04_01_08                                
 13               (1,1,9)         203.746568       111.517024       126.517024      01_01_09                                
 14               (2,1,9)         511.246568       269.017500       284.017500      02_01_09                                
 15               (3,1,9)         608.246568       316.111932       331.111932      03_01_09                                
 16               (4,1,9)         1020.24657       528.206592       543.206592      04_01_09                                
 17               (1,1,10)        203.674266       111.694039       126.694039      01_01_10                                
 18               (2,1,10)        511.174266       269.194209       284.194209      02_01_10                                
 19               (3,1,10)        608.174266       316.229884       331.229884      03_01_10                                
 20               (4,1,10)        1020.17427       528.265645       543.265645      04_01_10                                
 21               (1,2,5)         203.903417       111.133014       126.133014      01_02_05                                
 22               (2,2,5)         511.403417       268.645293       283.645293      02_02_05                                
 23               (3,2,5)         608.403417       316.004104       331.004104      03_02_05                                
 24               (4,2,5)         1020.40342       528.363429       543.363429      04_02_05                                
 25               (1,2,6)         203.697854       111.636288       126.636288      01_02_06                                
 26               (2,2,6)         511.197854       269.136770       284.136770      02_02_06                                
 27               (3,2,6)         608.197854       316.232503       331.232503      03_02_06                                
 28               (4,2,6)         1020.19785       528.328468       543.328468      04_02_06                                
 29               (1,2,7)         203.689127       111.657654       126.657654      01_02_07                                
 30               (2,2,7)         511.189127       269.158111       284.158111      02_02_07                                
 31               (3,2,7)         608.189127       316.249304       331.249304      03_02_07                                
 32               (4,2,7)         1020.18913       528.340717       543.340717      04_02_07                                
 33               (1,2,8)         203.835035       111.300433       126.300433      01_02_08                                
 34               (2,2,8)         511.335035       268.812390       283.812390      02_02_08                                
 35               (3,2,8)         608.335035       316.105089       331.105089      03_02_08                                
 36               (4,2,8)         1020.33503       528.398143       543.398143      04_02_08                                
 37               (1,2,9)         203.660243       111.728371       126.728371      01_02_09                                
 38               (2,2,9)         511.160243       269.228776       284.228776      02_02_09                                
 39               (3,2,9)         608.160243       316.308571       331.308571      03_02_09                                
 40               (4,2,9)         1020.16024       528.388559       543.388559      04_02_09                                
 41               (1,2,10)        203.618923       111.829533       126.829533      01_02_10                                
 42               (2,2,10)        511.118923       269.329730       284.329730      02_02_10                                
 43               (3,2,10)        608.118923       316.371051       331.371051      03_02_10                                
 44               (4,2,10)        1020.11892       528.412472       543.412472      04_02_10                                
 45               (1,2,11)        203.676929       111.687519       126.687519      01_02_11                                
 46               (2,2,11)        511.176929       269.188011       284.188011      02_02_11                                
 47               (3,2,11)        608.176929       316.285228       331.285228      03_02_11                                
 48               (4,2,11)        1020.17693       528.382680       543.382680      04_02_11                                
 49               (1,2,12)        203.913967       111.107184       126.107184      01_02_12                                
 50               (2,2,12)        511.413967       268.619477       283.619477      02_02_12                                
 51               (3,2,12)        608.413967       315.981453       330.981453      03_02_12                                
 52               (4,2,12)        1020.41397       528.343952       543.343952      04_02_12                                
 53               (1,3,4)         203.760258       111.483506       126.483506      01_03_04                                
 54               (2,3,4)         511.260258       268.995816       283.995816      02_03_04                                
 55               (3,3,4)         608.260258       316.357732       331.357732      03_03_04                                
 56               (4,3,4)         1020.26026       528.720170       543.720170      04_03_04                                
 57               (1,3,5)         203.617968       111.831873       126.831873      01_03_05                                
 58               (2,3,5)         511.117968       269.332609       284.332609      02_03_05                                
 59               (3,3,5)         608.117968       316.475589       331.475589      03_03_05                                
 60               (4,3,5)         1020.11797       528.618914       543.618914      04_03_05                                
 61               (1,3,6)         203.523514       112.063121       127.063121      01_03_06                                
 62               (2,3,6)         511.023514       269.563375       284.563375      02_03_06                                
 63               (3,3,6)         608.023514       316.615175       331.615175      03_03_06                                
 64               (4,3,6)         1020.02351       528.667100       543.667100      04_03_06                                
 65               (1,3,7)         203.497349       112.127179       127.127179      01_03_07                                
 66               (2,3,7)         510.997349       269.627370       284.627370      02_03_07                                
 67               (3,3,7)         607.997349       316.666118       331.666118      03_03_07                                
 68               (4,3,7)         1019.99735       528.704959       543.704959      04_03_07                                
 69               (1,3,8)         203.514197       112.085932       127.085932      01_03_08                                
 70               (2,3,8)         511.014197       269.586287       284.586287      02_03_08                                
 71               (3,3,8)         608.014197       316.652667       331.652667      03_03_08                                
 72               (4,3,8)         1020.01420       528.719206       543.719206      04_03_08                                
 73               (1,3,9)         203.479887       112.169932       127.169932      01_03_09                                
 74               (2,3,9)         510.979887       269.670092       284.670092      02_03_09                                
 75               (3,3,9)         607.979887       316.702438       331.702438      03_03_09                                
 76               (4,3,9)         1019.97989       528.734862       543.734862      04_03_09                                
 77               (1,3,10)        203.483890       112.160132       127.160132      01_03_10                                
 78               (2,3,10)        510.983890       269.660265       284.660265      02_03_10                                
 79               (3,3,10)        607.983890       316.687430       331.687430      03_03_10                                
 80               (4,3,10)        1019.98389       528.714660       543.714660      04_03_10                                
 81               (1,3,11)        203.545384       112.009578       127.009578      01_03_11                                
 82               (2,3,11)        511.045384       269.509873       284.509873      02_03_11                                
 83               (3,3,11)        608.045384       316.570901       331.570901      03_03_11                                
 84               (4,3,11)        1020.04538       528.632078       543.632078      04_03_11                                
 85               (1,3,12)        203.661573       111.725114       126.725114      01_03_12                                
 86               (2,3,12)        511.161573       269.225893       284.225893      02_03_12                                
 87               (3,3,12)        608.161573       316.379567       331.379567      03_03_12                                
 88               (4,3,12)        1020.16157       528.533611       543.533611      04_03_12                                
 89               (1,4,4)         203.412013       112.336107       127.336107      01_04_04                                
 90               (2,4,4)         510.912013       269.836651       284.836651      02_04_04                                
 91               (3,4,4)         607.912013       316.942492       331.942492      03_04_04                                
 92               (4,4,4)         1019.91201       529.048589       544.048589      04_04_04                                
 93               (1,4,5)         203.355303       112.474948       127.474948      01_04_05                                
 94               (2,4,5)         510.855303       269.975209       284.975209      02_04_05                                
 95               (3,4,5)         607.855303       317.027236       332.027236      03_04_05                                
 96               (4,4,5)         1019.85530       529.079388       544.079388      04_04_05                                
 97               (1,4,6)         203.305115       112.597821       127.597821      01_04_06                                
 98               (2,4,6)         510.805115       270.097939       285.097939      02_04_06                                
 99               (3,4,6)         607.805115       317.120499       332.120499      03_04_06                                
 100              (4,4,6)         1019.80512       529.143114       544.143114      04_04_06                                
 101              (1,4,7)         203.280572       112.657909       127.657909      01_04_07                                
 102              (2,4,7)         510.780572       270.157990       285.157990      02_04_07                                
 103              (3,4,7)         607.780572       317.172845       332.172845      03_04_07                                
 104              (4,4,7)         1019.78057       529.187736       544.187736      04_04_07                                
 105              (1,4,8)         203.276681       112.667437       127.667437      01_04_08                                
 106              (2,4,8)         510.776681       270.167532       285.167532      02_04_08                                
 107              (3,4,8)         607.776681       317.185139       332.185139      03_04_08                                
 108              (4,4,8)         1019.77668       529.202787       544.202787      04_04_08                                
 109              (1,4,9)         203.276229       112.668543       127.668543      01_04_09                                
 110              (2,4,9)         510.776229       270.168618       285.168618      02_04_09                                
 111              (3,4,9)         607.776229       317.182413       332.182413      03_04_09                                
 112              (4,4,9)         1019.77623       529.196241       544.196241      04_04_09                                
 113              (1,4,10)        203.304053       112.600421       127.600421      01_04_10                                
 114              (2,4,10)        510.804053       270.100536       285.100536      02_04_10                                
 115              (3,4,10)        607.804053       317.123160       332.123160      03_04_10                                
 116              (4,4,10)        1019.80405       529.145838       544.145838      04_04_10                                
 117              (1,4,11)        203.387905       112.395129       127.395129      01_04_11                                
 118              (2,4,11)        510.887905       269.895520       284.895520      02_04_11                                
 119              (3,4,11)        607.887905       316.971300       331.971300      03_04_11                                
 120              (4,4,11)        1019.88790       529.047262       544.047262      04_04_11                                
 121              (1,4,12)        203.601606       111.871930       126.871930      01_04_12                                
 122              (2,4,12)        511.101606       269.383999       284.383999      02_04_12                                
 123              (3,4,12)        608.101606       316.694840       331.694840      03_04_12                                
 124              (4,4,12)        1020.10161       529.006080       544.006080      04_04_12                                
 125              (1,5,3)         203.310178       112.585427       127.585427      01_05_03                                
 126              (2,5,3)         510.810178       270.097723       285.097723      02_05_03                                
 127              (3,5,3)         607.810178       317.445701       332.445701      03_05_03                                
 128              (4,5,3)         1019.81018       529.794165       544.794165      04_05_03                                
 129              (1,5,4)         203.171348       112.925320       127.925320      01_05_04                                
 130              (2,5,4)         510.671348       270.425780       285.425780      02_05_04                                
 131              (3,5,4)         607.671348       317.516366       332.516366      03_05_04                                
 132              (4,5,4)         1019.67135       529.607172       544.607172      04_05_04                                
 133              (1,5,5)         203.110042       113.075415       128.075415      01_05_05                                
 134              (2,5,5)         510.610042       270.575566       285.575566      02_05_05                                
 135              (3,5,5)         607.610042       317.604815       332.604815      03_05_05                                
 136              (4,5,5)         1019.61004       529.634135       544.634135      04_05_05                                
 137              (1,5,6)         203.071178       113.170564       128.170564      01_05_06                                
 138              (2,5,6)         510.571178       270.670630       285.670630      02_05_06                                
 139              (3,5,6)         607.571178       317.681862       332.681862      03_05_06                                
 140              (4,5,6)         1019.57118       529.693122       544.693122      04_05_06                                
 141              (1,5,7)         203.049592       113.223413       128.223413      01_05_07                                
 142              (2,5,7)         510.549592       270.723454       285.723454      02_05_07                                
 143              (3,5,7)         607.549592       317.729729       332.729729      03_05_07                                
 144              (4,5,7)         1019.54959       529.736018       544.736018      04_05_07                                
 145              (1,5,8)         203.043372       113.238640       128.238640      01_05_08                                
 146              (2,5,8)         510.543372       270.738681       285.738681      02_05_08                                
 147              (3,5,8)         607.543372       317.744613       332.744613      03_05_08                                
 148              (4,5,8)         1019.54337       529.750560       544.750560      04_05_08                                
 149              (1,5,9)         203.050311       113.221653       128.221653      01_05_09                                
 150              (2,5,9)         510.550311       270.721696       285.721696      02_05_09                                
 151              (3,5,9)         607.550311       317.728277       332.728277      03_05_09                                
 152              (4,5,9)         1019.55031       529.734875       544.734875      04_05_09                                
 153              (1,5,10)        203.078486       113.152671       128.152671      01_05_10                                
 154              (2,5,10)        510.578486       270.652748       285.652748      02_05_10                                
 155              (3,5,10)        607.578486       317.666554       332.666554      03_05_10                                
 156              (4,5,10)        1019.57849       529.680393       544.680393      04_05_10                                
 157              (1,5,11)        203.137782       113.007500       128.007500      01_05_11                                
 158              (2,5,11)        510.637782       270.507715       285.507715      02_05_11                                
 159              (3,5,11)        607.637782       317.550145       332.550145      03_05_11                                
 160              (4,5,11)        1019.63778       529.592678       544.592678      04_05_11                                
 161              (1,5,12)        203.237338       112.763759       127.763759      01_05_12                                
 162              (2,5,12)        510.737338       270.264464       285.264464      02_05_12                                
 163              (3,5,12)        607.737338       317.399908       332.399908      03_05_12                                
 164              (4,5,12)        1019.73734       529.535679       544.535679      04_05_12                                
 165              (1,5,13)        203.355484       112.474504       127.474504      01_05_13                                
 166              (2,5,13)        510.855484       269.986905       284.986905      02_05_13                                
 167              (3,5,13)        607.855484       317.358317       332.358317      03_05_13                                
 168              (4,5,13)        1019.85548       529.730273       544.730273      04_05_13                                
 169              (1,6,3)         202.948591       113.470690       128.470690      01_06_03                                
 170              (2,6,3)         510.448591       270.971202       285.971202      02_06_03                                
 171              (3,6,3)         607.448591       318.070866       333.070866      03_06_03                                
 172              (4,6,3)         1019.44859       530.170771       545.170771      04_06_03                                
 173              (1,6,4)         202.897522       113.595721       128.595721      01_06_04                                
 174              (2,6,4)         510.397522       271.095925       286.095925      02_06_04                                
 175              (3,6,4)         607.397522       318.135901       333.135901      03_06_04                                
 176              (4,6,4)         1019.39752       530.175973       545.175973      04_06_04                                
 177              (1,6,5)         202.855498       113.698609       128.698609      01_06_05                                
 178              (2,6,5)         510.355498       271.198693       286.198693      02_06_05                                
 179              (3,6,5)         607.355498       318.213366       333.213366      03_06_05                                
 180              (4,6,5)         1019.35550       530.228074       545.228074      04_06_05                                
 181              (1,6,6)         202.824562       113.774348       128.774348      01_06_06                                
 182              (2,6,6)         510.324562       271.274390       286.274390      02_06_06                                
 183              (3,6,6)         607.324562       318.280246       333.280246      03_06_06                                
 184              (4,6,6)         1019.32456       530.286117       545.286117      04_06_06                                
 185              (1,6,7)         202.805493       113.821035       128.821035      01_06_07                                
 186              (2,6,7)         510.305493       271.321064       286.321064      02_06_07                                
 187              (3,6,7)         607.305493       318.324205       333.324205      03_06_07                                
 188              (4,6,7)         1019.30549       530.327353       545.327353      04_06_07                                
 189              (1,6,8)         202.798978       113.836985       128.836985      01_06_08                                
 190              (2,6,8)         510.298978       271.337011       286.337011      02_06_08                                
 191              (3,6,8)         607.298978       318.339708       333.339708      03_06_08                                
 192              (4,6,8)         1019.29898       530.342410       545.342410      04_06_08                                
 193              (1,6,9)         202.805579       113.820823       128.820823      01_06_09                                
 194              (2,6,9)         510.305579       271.320853       286.320853      02_06_09                                
 195              (3,6,9)         607.305579       318.324319       333.324319      03_06_09                                
 196              (4,6,9)         1019.30558       530.327792       545.327792      04_06_09                                
 197              (1,6,10)        202.827663       113.766755       128.766755      01_06_10                                
 198              (2,6,10)        510.327663       271.266804       286.266804      02_06_10                                
 199              (3,6,10)        607.327663       318.274118       333.274118      03_06_10                                
 200              (4,6,10)        1019.32766       530.281449       545.281449      04_06_10                                
 201              (1,6,11)        202.866778       113.670991       128.670991      01_06_11                                
 202              (2,6,11)        510.366778       271.171102       286.171102      02_06_11                                
 203              (3,6,11)        607.366778       318.191018       333.191018      03_06_11                                
 204              (4,6,11)        1019.36678       530.210982       545.210982      04_06_11                                
 205              (1,6,12)        202.921232       113.537674       128.537674      01_06_12                                
 206              (2,6,12)        510.421232       271.037956       286.037956      02_06_12                                
 207              (3,6,12)        607.421232       318.093556       333.093556      03_06_12                                
 208              (4,6,12)        1019.42123       530.149290       545.149290      04_06_12                                
 209              (1,6,13)        202.984789       113.382068       128.382068      01_06_13                                
 210              (2,6,13)        510.484789       270.882813       285.882813      02_06_13                                
 211              (3,6,13)        607.484789       318.027518       333.027518      03_06_13                                
 212              (4,6,13)        1019.48479       530.172573       545.172573      04_06_13                                
 213              (1,6,14)        203.080698       113.147257       128.147257      01_06_14                                
 214              (2,6,14)        510.580698       270.659637       285.659637      02_06_14                                
 215              (3,6,14)        607.580698       318.020178       333.020178      03_06_14                                
 216              (4,6,14)        1019.58070       530.381234       545.381234      04_06_14                                
 217              (1,7,2)         202.809947       113.810129       128.810129      01_07_02                                
 218              (2,7,2)         510.309947       271.322466       286.322466      02_07_02                                
 219              (3,7,2)         607.309947       318.666891       333.666891      03_07_02                                
 220              (4,7,2)         1019.30995       531.011790       546.011790      04_07_02                                
 221              (1,7,3)         202.686180       114.113146       129.113146      01_07_03                                
 222              (2,7,3)         510.186180       271.613587       286.613587      02_07_03                                
 223              (3,7,3)         607.186180       318.700743       333.700743      03_07_03                                
 224              (4,7,3)         1019.18618       530.788109       545.788109      04_07_03                                
 225              (1,7,4)         202.632835       114.243748       129.243748      01_07_04                                
 226              (2,7,4)         510.132835       271.743883       286.743883      02_07_04                                
 227              (3,7,4)         607.132835       318.769616       333.769616      03_07_04                                
 228              (4,7,4)         1019.13284       530.795410       545.795410      04_07_04                                
 229              (1,7,5)         202.595990       114.333955       129.333955      01_07_05                                
 230              (2,7,5)         510.095990       271.834011       286.834011      02_07_05                                
 231              (3,7,5)         607.095990       318.842656       333.842656      03_07_05                                
 232              (4,7,5)         1019.09599       530.851323       545.851323      04_07_05                                
 233              (1,7,6)         202.568017       114.402440       129.402440      01_07_06                                
 234              (2,7,6)         510.068017       271.902472       286.902472      02_07_06                                
 235              (3,7,6)         607.068017       318.905972       333.905972      03_07_06                                
 236              (4,7,6)         1019.06802       530.909479       545.909479      04_07_06                                
 237              (1,7,7)         202.549491       114.447799       129.447799      01_07_07                                
 238              (2,7,7)         510.049491       271.947823       286.947823      02_07_07                                
 239              (3,7,7)         607.049491       318.949787       333.949787      03_07_07                                
 240              (4,7,7)         1019.04949       530.951755       545.951755      04_07_07                                
 241              (1,7,8)         202.541907       114.466365       129.466365      01_07_08                                
 242              (2,7,8)         510.041907       271.966388       286.966388      02_07_08                                
 243              (3,7,8)         607.041907       318.968055       333.968055      03_07_08                                
 244              (4,7,8)         1019.04191       530.969726       545.969726      04_07_08                                
 245              (1,7,9)         202.546168       114.455934       129.455934      01_07_09                                
 246              (2,7,9)         510.046168       271.955960       286.955960      02_07_09                                
 247              (3,7,9)         607.046168       318.958035       333.958035      03_07_09                                
 248              (4,7,9)         1019.04617       530.960115       545.960115      04_07_09                                
 249              (1,7,10)        202.562413       114.416162       129.416162      01_07_10                                
 250              (2,7,10)        510.062413       271.916196       286.916196      02_07_10                                
 251              (3,7,10)        607.062413       318.919969       333.919969      03_07_10                                
 252              (4,7,10)        1019.06241       530.923750       545.923750      04_07_10                                
 253              (1,7,11)        202.588951       114.351189       129.351189      01_07_11                                
 254              (2,7,11)        510.088951       271.851248       286.851248      02_07_11                                
 255              (3,7,11)        607.088951       318.859893       333.859893      03_07_11                                
 256              (4,7,11)        1019.08895       530.868558       545.868558      04_07_11                                
 257              (1,7,12)        202.621366       114.271829       129.271829      01_07_12                                
 258              (2,7,12)        510.121366       271.771946       286.771946      02_07_12                                
 259              (3,7,12)        607.121366       318.792765       333.792765      03_07_12                                
 260              (4,7,12)        1019.12137       530.813633       545.813633      04_07_12                                
 261              (1,7,13)        202.653222       114.193836       129.193836      01_07_13                                
 262              (2,7,13)        510.153222       271.694079       286.694079      02_07_13                                
 263              (3,7,13)        607.153222       318.741087       333.741087      03_07_13                                
 264              (4,7,13)        1019.15322       530.788209       545.788209      04_07_13                                
 265              (1,7,14)        202.680583       114.126848       129.126848      01_07_14                                
 266              (2,7,14)        510.180583       271.627323       286.627323      02_07_14                                
 267              (3,7,14)        607.180583       318.717970       333.717970      03_07_14                                
 268              (4,7,14)        1019.18058       530.808835       545.808835      04_07_14                                
 269              (1,8,2)         202.427943       114.745381       129.745381      01_08_02                                
 270              (2,8,2)         509.927943       272.245816       287.245816      02_08_02                                
 271              (3,8,2)         606.927943       319.329143       334.329143      03_08_02                                
 272              (4,8,2)         1018.92794       531.412670       546.412670      04_08_02                                
 273              (1,8,3)         202.396267       114.822932       129.822932      01_08_03                                
 274              (2,8,3)         509.896267       272.323106       287.323106      02_08_03                                
 275              (3,8,3)         606.896267       319.356708       334.356708      03_08_03                                
 276              (4,8,3)         1018.89627       531.390391       546.390391      04_08_03                                
 277              (1,8,4)         202.363065       114.904220       129.904220      01_08_04                                
 278              (2,8,4)         509.863065       272.404293       287.404293      02_08_04                                
 279              (3,8,4)         606.863065       319.416496       334.416496      03_08_04                                
 280              (4,8,4)         1018.86307       531.428727       546.428727      04_08_04                                
 281              (1,8,5)         202.330807       114.983198       129.983198      01_08_05                                
 282              (2,8,5)         509.830807       272.483236       287.483236      02_08_05                                
 283              (3,8,5)         606.830807       319.487954       334.487954      03_08_05                                
 284              (4,8,5)         1018.83081       531.492684       546.492684      04_08_05                                
 285              (1,8,6)         202.302758       115.051869       130.051869      01_08_06                                
 286              (2,8,6)         509.802758       272.551896       287.551896      02_08_06                                
 287              (3,8,6)         606.802758       319.554146       334.554146      03_08_06                                
 288              (4,8,6)         1018.80276       531.556401       546.556401      04_08_06                                
 289              (1,8,7)         202.282542       115.101362       130.101362      01_08_07                                
 290              (2,8,7)         509.782542       272.601386       287.601386      02_08_07                                
 291              (3,8,7)         606.782542       319.602868       334.602868      03_08_07                                
 292              (4,8,7)         1018.78254       531.604354       546.604354      04_08_07                                
 293              (1,8,8)         202.272842       115.125111       130.125111      01_08_08                                
 294              (2,8,8)         509.772842       272.625134       287.625134      02_08_08                                
 295              (3,8,8)         606.772842       319.626456       334.626456      03_08_08                                
 296              (4,8,8)         1018.77284       531.627780       546.627780      04_08_08                                
 297              (1,8,9)         202.274798       115.120321       130.120321      01_08_09                                
 298              (2,8,9)         509.774798       272.620345       287.620345      02_08_09                                
 299              (3,8,9)         606.774798       319.621841       334.621841      03_08_09                                
 300              (4,8,9)         1018.77480       531.623340       546.623340      04_08_09                                
 301              (1,8,10)        202.287669       115.088811       130.088811      01_08_10                                
 302              (2,8,10)        509.787669       272.588838       287.588838      02_08_10                                
 303              (3,8,10)        606.787669       319.590999       334.590999      03_08_10                                
 304              (4,8,10)        1018.78767       531.593165       546.593165      04_08_10                                
 305              (1,8,11)        202.308304       115.038290       130.038290      01_08_11                                
 306              (2,8,11)        509.808304       272.538326       287.538326      02_08_11                                
 307              (3,8,11)        606.808304       319.542202       334.542202      03_08_11                                
 308              (4,8,11)        1018.80830       531.546086       546.546086      04_08_11                                
 309              (1,8,12)        202.330830       114.983139       129.983139      01_08_12                                
 310              (2,8,12)        509.830830       272.483194       287.483194      02_08_12                                
 311              (3,8,12)        606.830830       319.490874       334.490874      03_08_12                                
 312              (4,8,12)        1018.83083       531.498572       546.498572      04_08_12                                
 313              (1,8,13)        202.347328       114.942748       129.942748      01_08_13                                
 314              (2,8,13)        509.847328       272.442838       287.442838      02_08_13                                
 315              (3,8,13)        606.847328       319.457542       334.457542      03_08_13                                
 316              (4,8,13)        1018.84733       531.472281       546.472281      04_08_13                                
 317              (1,8,14)        202.351332       114.932945       129.932945      01_08_14                                
 318              (2,8,14)        509.851332       272.433079       287.433079      02_08_14                                
 319              (3,8,14)        606.851332       319.456760       334.456760      03_08_14                                
 320              (4,8,14)        1018.85133       531.480498       546.480498      04_08_14                                
 321              (1,9,1)         202.016147       115.753570       130.753570      01_09_01                                
 322              (2,9,1)         509.516147       273.253598       288.253598      02_09_01                                
 323              (3,9,1)         606.516147       320.259251       335.259251      03_09_01                                
 324              (4,9,1)         1018.51615       532.264918       547.264918      04_09_01                                
 325              (1,9,2)         202.117933       115.504372       130.504372      01_09_02                                
 326              (2,9,2)         509.617933       273.004479       288.004479      02_09_02                                
 327              (3,9,2)         606.617933       320.022991       335.022991      03_09_02                                
 328              (4,9,2)         1018.61793       532.041547       547.041547      04_09_02                                
 329              (1,9,3)         202.122989       115.491992       130.491992      01_09_03                                
 330              (2,9,3)         509.622989       272.992059       287.992059      02_09_03                                
 331              (3,9,3)         606.622989       320.002949       335.002949      03_09_03                                
 332              (4,9,3)         1018.62299       532.013865       547.013865      04_09_03                                
 333              (1,9,4)         202.097213       115.555098       130.555098      01_09_04                                
 334              (2,9,4)         509.597213       273.055139       288.055139      02_09_04                                
 335              (3,9,4)         606.597213       320.060318       335.060318      03_09_04                                
 336              (4,9,4)         1018.59721       532.065508       547.065508      04_09_04                                
 337              (1,9,5)         202.062671       115.639668       130.639668      01_09_05                                
 338              (2,9,5)         509.562671       273.139697       288.139697      02_09_05                                
 339              (3,9,5)         606.562671       320.142299       335.142299      03_09_05                                
 340              (4,9,5)         1018.56267       532.144907       547.144907      04_09_05                                
 341              (1,9,6)         202.029725       115.720328       130.720328      01_09_06                                
 342              (2,9,6)         509.529725       273.220353       288.220353      02_09_06                                
 343              (3,9,6)         606.529725       320.221982       335.221982      03_09_06                                
 344              (4,9,6)         1018.52973       532.223614       547.223614      04_09_06                                
 345              (1,9,7)         202.004757       115.781458       130.781458      01_09_07                                
 346              (2,9,7)         509.504757       273.281482       288.281482      02_09_07                                
 347              (3,9,7)         606.504757       320.282790       335.282790      03_09_07                                
 348              (4,9,7)         1018.50476       532.284100       547.284100      04_09_07                                
 349              (1,9,8)         201.991708       115.813405       130.813405      01_09_08                                
 350              (2,9,8)         509.491708       273.313429       288.313429      02_09_08                                
 351              (3,9,8)         606.491708       320.314668       335.314668      03_09_08                                
 352              (4,9,8)         1018.49171       532.315910       547.315910      04_09_08                                
 353              (1,9,9)         201.992169       115.812277       130.812277      01_09_09                                
 354              (2,9,9)         509.492169       273.312302       288.312302      02_09_09                                
 355              (3,9,9)         606.492169       320.313609       335.313609      03_09_09                                
 356              (4,9,9)         1018.49217       532.314919       547.314919      04_09_09                                
 357              (1,9,10)        202.005107       115.780599       130.780599      01_09_10                                
 358              (2,9,10)        509.505107       273.280625       288.280625      02_09_10                                
 359              (3,9,10)        606.505107       320.282171       335.282171      03_09_10                                
 360              (4,9,10)        1018.50511       532.283721       547.283721      04_09_10                                
 361              (1,9,11)        202.026499       115.728226       130.728226      01_09_11                                
 362              (2,9,11)        509.526499       273.228254       288.228254      02_09_11                                
 363              (3,9,11)        606.526499       320.230361       335.230361      03_09_11                                
 364              (4,9,11)        1018.52650       532.232472       547.232472      04_09_11                                
 365              (1,9,12)        202.048829       115.673556       130.673556      01_09_12                                
 366              (2,9,12)        509.548829       273.173589       288.173589      02_09_12                                
 367              (3,9,12)        606.548829       320.176810       335.176810      03_09_12                                
 368              (4,9,12)        1018.54883       532.180037       547.180037      04_09_12                                
 369              (1,9,13)        202.059721       115.646889       130.646889      01_09_13                                
 370              (2,9,13)        509.559721       273.146931       288.146931      02_09_13                                
 371              (3,9,13)        606.559721       320.151873       335.151873      03_09_13                                
 372              (4,9,13)        1018.55972       532.156827       547.156827      04_09_13                                
 373              (1,9,14)        202.036035       115.704880       130.704880      01_09_14                                
 374              (2,9,14)        509.536035       273.204932       288.204932      02_09_14                                
 375              (3,9,14)        606.536035       320.211124       335.211124      03_09_14                                
 376              (4,9,14)        1018.53603       532.217331       547.217331      04_09_14                                
 377              (1,9,15)        201.916975       115.996371       130.996371      01_09_15                                
 378              (2,9,15)        509.416975       273.496384       288.496384      02_09_15                                
 379              (3,9,15)        606.416975       320.498521       335.498521      03_09_15                                
 380              (4,9,15)        1018.41698       532.500664       547.500664      04_09_15                                
 381              (1,10,1)        201.916978       115.996365       130.996365      01_10_01                                
 382              (2,10,1)        509.416978       273.496380       288.496380      02_10_01                                
 383              (3,10,1)        606.416978       320.499249       335.499249      03_10_01                                
 384              (4,10,1)        1018.41698       532.502126       547.502126      04_10_01                                
 385              (1,10,2)        201.912284       116.007857       131.007857      01_10_02                                
 386              (2,10,2)        509.412284       273.507893       288.507893      02_10_02                                
 387              (3,10,2)        606.412284       320.513497       335.513497      03_10_02                                
 388              (4,10,2)        1018.41228       532.519115       547.519115      04_10_02                                
 389              (1,10,3)        201.884770       116.075219       131.075219      01_10_03                                
 390              (2,10,3)        509.384770       273.575252       288.575252      02_10_03                                
 391              (3,10,3)        606.384770       320.579547       335.579547      03_10_03                                
 392              (4,10,3)        1018.38477       532.583853       547.583853      04_10_03                                
 393              (1,10,4)        201.841616       116.180872       131.180872      01_10_04                                
 394              (2,10,4)        509.341616       273.680900       288.680900      02_10_04                                
 395              (3,10,4)        606.341616       320.683598       335.683598      03_10_04                                
 396              (4,10,4)        1018.34162       532.686302       547.686302      04_10_04                                
 397              (1,10,5)        201.793142       116.299550       131.299550      01_10_05                                
 398              (2,10,5)        509.293142       273.799576       288.799576      02_10_05                                
 399              (3,10,5)        606.293142       320.801379       335.801379      03_10_05                                
 400              (4,10,5)        1018.29314       532.803187       547.803187      04_10_05                                
 401              (1,10,6)        201.748407       116.409073       131.409073      01_10_06                                
 402              (2,10,6)        509.248407       273.909099       288.909099      02_10_06                                
 403              (3,10,6)        606.248407       320.910533       335.910533      03_10_06                                
 404              (4,10,6)        1018.24841       532.911970       547.911970      04_10_06                                
 405              (1,10,7)        201.714553       116.491957       131.491957      01_10_07                                
 406              (2,10,7)        509.214553       273.991983       288.991983      02_10_07                                
 407              (3,10,7)        606.214553       320.993299       335.993299      03_10_07                                
 408              (4,10,7)        1018.21455       532.994618       547.994618      04_10_07                                
 409              (1,10,8)        201.696513       116.536123       131.536123      01_10_08                                
 410              (2,10,8)        509.196513       274.036150       289.036150      02_10_08                                
 411              (3,10,8)        606.196513       321.037448       336.037448      03_10_08                                
 412              (4,10,8)        1018.19651       533.038749       548.038749      04_10_08                                
 413              (1,10,9)        201.696530       116.536082       131.536082      01_10_09                                
 414              (2,10,9)        509.196530       274.036109       289.036109      02_10_09                                
 415              (3,10,9)        606.196530       321.037438       336.037438      03_10_09                                
 416              (4,10,9)        1018.19653       533.038770       548.038770      04_10_09                                
 417             (1,10,10)        201.713675       116.494107       131.494107      01_10_10                                
 418             (2,10,10)        509.213675       273.994133       288.994133      02_10_10                                
 419             (3,10,10)        606.213675       320.995554       335.995554      03_10_10                                
 420             (4,10,10)        1018.21367       532.996977       547.996977      04_10_10                                
 421             (1,10,11)        201.743619       116.420796       131.420796      01_10_11                                
 422             (2,10,11)        509.243619       273.920822       288.920822      02_10_11                                
 423             (3,10,11)        606.243619       320.922453       335.922453      03_10_11                                
 424             (4,10,11)        1018.24362       532.924087       547.924087      04_10_11                                
 425             (1,10,12)        201.778676       116.334966       131.334966      01_10_12                                
 426             (2,10,12)        509.278676       273.834993       288.834993      02_10_12                                
 427             (3,10,12)        606.278676       320.837033       335.837033      03_10_12                                
 428             (4,10,12)        1018.27868       532.839078       547.839078      04_10_12                                
 429             (1,10,13)        201.807900       116.263418       131.263418      01_10_13                                
 430             (2,10,13)        509.307900       273.763445       288.763445      02_10_13                                
 431             (3,10,13)        606.307900       320.766057       335.766057      03_10_13                                
 432             (4,10,13)        1018.30790       532.768675       547.768675      04_10_13                                
 433             (1,10,14)        201.817670       116.239498       131.239498      01_10_14                                
 434             (2,10,14)        509.317670       273.739522       288.739522      02_10_14                                
 435             (3,10,14)        606.317670       320.742350       335.742350      03_10_14                                
 436             (4,10,14)        1018.31767       532.745184       547.745184      04_10_14                                
 437             (1,10,15)        201.798758       116.285799       131.285799      01_10_15                                
 438             (2,10,15)        509.298758       273.785809       288.785809      02_10_15                                
 439             (3,10,15)        606.298758       320.787444       335.787444      03_10_15                                
 440             (4,10,15)        1018.29876       532.789083       547.789083      04_10_15                                
 441              (1,11,1)        201.823765       116.224576       131.224576      01_11_01                                
 442              (2,11,1)        509.323765       273.724589       288.724589      02_11_01                                
 443              (3,11,1)        606.323765       320.726943       335.726943      03_11_01                                
 444              (4,11,1)        1018.32376       532.729303       547.729303      04_11_01                                
 445              (1,11,2)        201.731580       116.450270       131.450270      01_11_02                                
 446              (2,11,2)        509.231580       273.950306       288.950306      02_11_02                                
 447              (3,11,2)        606.231580       320.956237       335.956237      03_11_02                                
 448              (4,11,2)        1018.23158       532.962182       547.962182      04_11_02                                
 449              (1,11,3)        201.663453       116.617063       131.617063      01_11_03                                
 450              (2,11,3)        509.163453       274.117096       289.117096      02_11_03                                
 451              (3,11,3)        606.163453       321.121502       336.121502      03_11_03                                
 452              (4,11,3)        1018.16345       533.125919       548.125919      04_11_03                                
 453              (1,11,4)        201.591675       116.792796       131.792796      01_11_04                                
 454              (2,11,4)        509.091675       274.292824       289.292824      02_11_04                                
 455              (3,11,4)        606.091675       321.295584       336.295584      03_11_04                                
 456              (4,11,4)        1018.09168       533.298350       548.298350      04_11_04                                
 457              (1,11,5)        201.519659       116.969112       131.969112      01_11_05                                
 458              (2,11,5)        509.019659       274.469139       289.469139      02_11_05                                
 459              (3,11,5)        606.019659       321.471035       336.471035      03_11_05                                
 460              (4,11,5)        1018.01966       533.472935       548.472935      04_11_05                                
 461              (1,11,6)        201.455720       117.125651       132.125651      01_11_06                                
 462              (2,11,6)        508.955720       274.625679       289.625679      02_11_06                                
 463              (3,11,6)        605.955720       321.627248       336.627248      03_11_06                                
 464              (4,11,6)        1017.95572       533.628820       548.628820      04_11_06                                
 465              (1,11,7)        201.407929       117.242658       132.242658      01_11_07                                
 466              (2,11,7)        508.907929       274.742687       289.742687      02_11_07                                
 467              (3,11,7)        605.907929       321.744171       336.744171      03_11_07                                
 468              (4,11,7)        1017.90793       533.745657       548.745657      04_11_07                                
 469              (1,11,8)        201.382614       117.304634       132.304634      01_11_08                                
 470              (2,11,8)        508.882614       274.804664       289.804664      02_11_08                                
 471              (3,11,8)        605.882614       321.806144       336.806144      03_11_08                                
 472              (4,11,8)        1017.88261       533.807628       548.807628      04_11_08                                
 473              (1,11,9)        201.383128       117.303375       132.303375      01_11_09                                
 474              (2,11,9)        508.883128       274.803405       289.803405      02_11_09                                
 475              (3,11,9)        605.883128       321.804920       336.804920      03_11_09                                
 476              (4,11,9)        1017.88313       533.806437       548.806437      04_11_09                                
 477             (1,11,10)        201.408881       117.240327       132.240327      01_11_10                                
 478             (2,11,10)        508.908881       274.740357       289.740357      02_11_10                                
 479             (3,11,10)        605.908881       321.741970       336.741970      03_11_10                                
 480             (4,11,10)        1017.90888       533.743587       548.743587      04_11_10                                
 481             (1,11,11)        201.455232       117.126845       132.126845      01_11_11                                
 482             (2,11,11)        508.955232       274.626874       289.626874      02_11_11                                
 483             (3,11,11)        605.955232       321.628766       336.628766      03_11_11                                
 484             (4,11,11)        1017.95523       533.630663       548.630663      04_11_11                                
 485             (1,11,12)        201.514274       116.982294       131.982294      01_11_12                                
 486             (2,11,12)        509.014274       274.482323       289.482323      02_11_12                                
 487             (3,11,12)        606.014274       321.484898       336.484898      03_11_12                                
 488             (4,11,12)        1018.01427       533.487479       548.487479      04_11_12                                
 489             (1,11,13)        201.575881       116.831464       131.831464      01_11_13                                
 490             (2,11,13)        509.075881       274.331494       289.331494      02_11_13                                
 491             (3,11,13)        606.075881       321.335315       336.335315      03_11_13                                
 492             (4,11,13)        1018.07588       533.339144       548.339144      04_11_13                                
 493             (1,11,14)        201.628675       116.702210       131.702210      01_11_14                                
 494             (2,11,14)        509.128675       274.202241       289.202241      02_11_14                                
 495             (3,11,14)        606.128675       321.207089       336.207089      03_11_14                                
 496             (4,11,14)        1018.12867       533.211949       548.211949      04_11_14                                
 497             (1,11,15)        201.662223       116.620075       131.620075      01_11_15                                
 498             (2,11,15)        509.162223       274.120091       289.120091      02_11_15                                
 499             (3,11,15)        606.162223       321.122661       336.122661      03_11_15                                
 500             (4,11,15)        1018.16222       533.125237       548.125237      04_11_15                                
 501              (1,12,2)        201.529125       116.945934       131.945934      01_12_02                                
 502              (2,12,2)        509.029125       274.446039       289.446039      02_12_02                                
 503              (3,12,2)        606.029125       321.467229       336.467229      03_12_02                                
 504              (4,12,2)        1018.02913       533.488470       548.488470      04_12_02                                
 505              (1,12,3)        201.447165       117.146597       132.146597      01_12_03                                
 506              (2,12,3)        508.947165       274.646660       289.646660      02_12_03                                
 507              (3,12,3)        605.947165       321.658024       336.658024      03_12_03                                
 508              (4,12,3)        1017.94716       533.669416       548.669416      04_12_03                                
 509              (1,12,4)        201.342336       117.403246       132.403246      01_12_04                                
 510              (2,12,4)        508.842336       274.903288       289.903288      02_12_04                                
 511              (3,12,4)        605.842336       321.908680       336.908680      03_12_04                                
 512              (4,12,4)        1017.84234       533.914084       548.914084      04_12_04                                
 513              (1,12,5)        201.237854       117.659047       132.659047      01_12_05                                
 514              (2,12,5)        508.737854       275.159082       290.159082      02_12_05                                
 515              (3,12,5)        605.737854       322.161988       337.161988      03_12_05                                
 516              (4,12,5)        1017.73785       534.164900       549.164900      04_12_05                                
 517              (1,12,6)        201.146337       117.883106       132.883106      01_12_06                                
 518              (2,12,6)        508.646337       275.383140       290.383140      02_12_06                                
 519              (3,12,6)        605.646337       322.385209       337.385209      03_12_06                                
 520              (4,12,6)        1017.64634       534.387282       549.387282      04_12_06                                
 521              (1,12,7)        201.078139       118.050074       133.050074      01_12_07                                
 522              (2,12,7)        508.578139       275.550110       290.550110      02_12_07                                
 523              (3,12,7)        605.578139       322.551961       337.551961      03_12_07                                
 524              (4,12,7)        1017.57814       534.553816       549.553816      04_12_07                                
 525              (1,12,8)        201.042155       118.138172       133.138172      01_12_08                                
 526              (2,12,8)        508.542155       275.638208       290.638208      02_12_08                                
 527              (3,12,8)        605.542155       322.640039       337.640039      03_12_08                                
 528              (4,12,8)        1017.54216       534.641873       549.641873      04_12_08                                
 529              (1,12,9)        201.043777       118.134200       133.134200      01_12_09                                
 530              (2,12,9)        508.543777       275.634236       290.634236      02_12_09                                
 531              (3,12,9)        605.543777       322.636145       337.636145      03_12_09                                
 532              (4,12,9)        1017.54378       534.638057       549.638057      04_12_09                                
 533             (1,12,10)        201.082881       118.038463       133.038463      01_12_10                                
 534             (2,12,10)        508.582881       275.538499       290.538499      02_12_10                                
 535             (3,12,10)        605.582881       322.540681       337.540681      03_12_10                                
 536             (4,12,10)        1017.58288       534.542867       549.542867      04_12_10                                
 537             (1,12,11)        201.153812       117.864804       132.864804      01_12_11                                
 538             (2,12,11)        508.653812       275.364841       290.364841      02_12_11                                
 539             (3,12,11)        605.653812       322.367873       337.367873      03_12_11                                
 540             (4,12,11)        1017.65381       534.370912       549.370912      04_12_11                                
 541             (1,12,12)        201.247490       117.635455       132.635455      01_12_12                                
 542             (2,12,12)        508.747490       275.135499       290.135499      02_12_12                                
 543             (3,12,12)        605.747490       322.140904       337.140904      03_12_12                                
 544             (4,12,12)        1017.74749       534.146323       549.146323      04_12_12                                
 545             (1,12,13)        201.353723       117.375369       132.375369      01_12_13                                
 546             (2,12,13)        508.853723       274.875431       289.875431      02_12_13                                
 547             (3,12,13)        605.853723       321.886254       336.886254      03_12_13                                
 548             (4,12,13)        1017.85372       533.897102       548.897102      04_12_13                                
 549             (1,12,14)        201.460767       117.113293       132.113293      01_12_14                                
 550             (2,12,14)        508.960767       274.613384       289.613384      02_12_14                                
 551             (3,12,14)        605.960767       321.631519       336.631519      03_12_14                                
 552             (4,12,14)        1017.96077       533.649698       548.649698      04_12_14                                
 553             (1,12,15)        201.560225       116.869793       131.869793      01_12_15                                
 554             (2,12,15)        509.060225       274.369820       289.369820      02_12_15                                
 555             (3,12,15)        606.060225       321.375289       336.375289      03_12_15                                
 556             (4,12,15)        1018.06023       533.380770       548.380770      04_12_15                                
 557              (1,13,2)        201.418463       117.216865       132.216865      01_13_02                                
 558              (2,13,2)        508.918463       274.717265       289.717265      02_13_02                                
 559              (3,13,2)        605.918463       321.801384       336.801384      03_13_02                                
 560              (4,13,2)        1017.91846       533.885706       548.885706      04_13_02                                
 561              (1,13,3)        201.258558       117.608358       132.608358      01_13_03                                
 562              (2,13,3)        508.758558       275.108524       290.108524      02_13_03                                
 563              (3,13,3)        605.758558       322.142501       337.142501      03_13_03                                
 564              (4,13,3)        1017.75856       534.176560       549.176560      04_13_03                                
 565              (1,13,4)        201.094233       118.010671       133.010671      01_13_04                                
 566              (2,13,4)        508.594233       275.510748       290.510748      02_13_04                                
 567              (3,13,4)        605.594233       322.523337       337.523337      03_13_04                                
 568              (4,13,4)        1017.59423       534.535956       549.535956      04_13_04                                
 569              (1,13,5)        200.943186       118.380476       133.380476      01_13_05                                
 570              (2,13,5)        508.443186       275.880526       290.880526      02_13_05                                
 571              (3,13,5)        605.443186       322.885841       337.885841      03_13_05                                
 572              (4,13,5)        1017.44319       534.891168       549.891168      04_13_05                                
 573              (1,13,6)        200.813119       118.698916       133.698916      01_13_06                                
 574              (2,13,6)        508.313119       276.198960       291.198960      02_13_06                                
 575              (3,13,6)        605.313119       323.202066       338.202066      03_13_06                                
 576              (4,13,6)        1017.31312       535.205179       550.205179      04_13_06                                
 577              (1,13,7)        200.715371       118.938230       133.938230      01_13_07                                
 578              (2,13,7)        508.215371       276.438275       291.438275      02_13_07                                
 579              (3,13,7)        605.215371       323.440817       338.440817      03_13_07                                
 580              (4,13,7)        1017.21537       535.443365       550.443365      04_13_07                                
 581              (1,13,8)        200.663261       119.065810       134.065810      01_13_08                                
 582              (2,13,8)        508.163261       276.565856       291.565856      02_13_08                                
 583              (3,13,8)        605.163261       323.568322       338.568322      03_13_08                                
 584              (4,13,8)        1017.16326       535.570794       550.570794      04_13_08                                
 585              (1,13,9)        200.666161       119.058709       134.058709      01_13_09                                
 586              (2,13,9)        508.166161       276.558755       291.558755      02_13_09                                
 587              (3,13,9)        605.166161       323.561402       338.561402      03_13_09                                
 588              (4,13,9)        1017.16616       535.564053       550.564053      04_13_09                                
 589             (1,13,10)        200.724486       118.915912       133.915912      01_13_10                                
 590             (2,13,10)        508.224486       276.415961       291.415961      02_13_10                                
 591             (3,13,10)        605.224486       323.419312       338.419312      03_13_10                                
 592             (4,13,10)        1017.22449       535.422671       550.422671      04_13_10                                
 593             (1,13,11)        200.829672       118.658388       133.658388      01_13_11                                
 594             (2,13,11)        508.329672       276.158443       291.158443      02_13_11                                
 595             (3,13,11)        605.329672       323.164135       338.164135      03_13_11                                
 596             (4,13,11)        1017.32967       535.169839       550.169839      04_13_11                                
 597             (1,13,12)        200.969606       118.315793       133.315793      01_13_12                                
 598             (2,13,12)        508.469606       275.815875       290.815875      02_13_12                                
 599             (3,13,12)        605.469606       322.828913       337.828913      03_13_12                                
 600             (4,13,12)        1017.46961       534.841981       549.841981      04_13_12                                
 601             (1,13,13)        201.135197       117.910380       132.910380      01_13_13                                
 602             (2,13,13)        508.635197       275.410551       290.410551      02_13_13                                
 603             (3,13,13)        605.635197       322.444819       337.444819      03_13_13                                
 604             (4,13,13)        1017.63520       534.479169       549.479169      04_13_13                                
 605             (1,13,14)        201.308826       117.485288       132.485288      01_13_14                                
 606             (2,13,14)        508.808826       274.985687       289.985687      02_13_14                                
 607             (3,13,14)        605.808826       322.069416       337.069416      03_13_14                                
 608             (4,13,14)        1017.80883       534.153349       549.153349      04_13_14                                
 609              (1,14,2)        201.510907       116.990539       131.990539      01_14_02                                
 610              (2,14,2)        509.010907       274.503053       289.503053      02_14_02                                
 611              (3,14,2)        606.010907       321.852417       336.852417      03_14_02                                
 612              (4,14,2)        1018.01091       534.202263       549.202263      04_14_02                                
 613              (1,14,3)        201.090274       118.020364       133.020364      01_14_03                                
 614              (2,14,3)        508.590274       275.520825       290.520825      02_14_03                                
 615              (3,14,3)        605.590274       322.609560       337.609560      03_14_03                                
 616              (4,14,3)        1017.59027       534.698509       549.698509      04_14_03                                
 617              (1,14,4)        200.837779       118.638540       133.638540      01_14_04                                
 618              (2,14,4)        508.337779       276.138688       291.138688      02_14_04                                
 619              (3,14,4)        605.337779       323.165277       338.165277      03_14_04                                
 620              (4,14,4)        1017.33778       535.191929       550.191929      04_14_04                                
 621              (1,14,5)        200.628550       119.150792       134.150792      01_14_05                                
 622              (2,14,5)        508.128550       276.650868       291.650868      02_14_05                                
 623              (3,14,5)        605.128550       323.660523       338.660523      03_14_05                                
 624              (4,14,5)        1017.12855       535.670200       550.670200      04_14_05                                
 625              (1,14,6)        200.447224       119.594727       134.594727      01_14_06                                
 626              (2,14,6)        507.947224       277.094789       292.094789      02_14_06                                
 627              (3,14,6)        604.947224       324.099742       339.099742      03_14_06                                
 628              (4,14,6)        1016.94722       536.104706       551.104706      04_14_06                                
 629              (1,14,7)        200.306130       119.940165       134.940165      01_14_07                                
 630              (2,14,7)        507.806130       277.440227       292.440227      02_14_07                                
 631              (3,14,7)        604.806130       324.444050       339.444050      03_14_07                                
 632              (4,14,7)        1016.80613       536.447880       551.447880      04_14_07                                
 633              (1,14,8)        200.228405       120.130457       135.130457      01_14_08                                
 634              (2,14,8)        507.728405       277.630520       292.630520      02_14_08                                
 635              (3,14,8)        604.728405       324.634170       339.634170      03_14_08                                
 636              (4,14,8)        1016.72841       536.637827       551.637827      04_14_08                                
 637              (1,14,9)        200.232264       120.121009       135.121009      01_14_09                                
 638              (2,14,9)        507.732264       277.621073       292.621073      02_14_09                                
 639              (3,14,9)        604.732264       324.625076       339.625076      03_14_09                                
 640              (4,14,9)        1016.73226       536.629086       551.629086      04_14_09                                
 641             (1,14,10)        200.318823       119.909088       134.909088      01_14_10                                
 642             (2,14,10)        507.818823       277.409157       292.409157      02_14_10                                
 643             (3,14,10)        604.818823       324.414656       339.414656      03_14_10                                
 644             (4,14,10)        1016.81882       536.420167       551.420167      04_14_10                                
 645             (1,14,11)        200.471762       119.534651       134.534651      01_14_11                                
 646             (2,14,11)        507.971762       277.034738       292.034738      02_14_11                                
 647             (3,14,11)        604.971762       324.045389       339.045389      03_14_11                                
 648             (4,14,11)        1016.97176       536.056064       551.056064      04_14_11                                
 649             (1,14,12)        200.670983       119.046903       134.046903      01_14_12                                
 650             (2,14,12)        508.170983       276.547063       291.547063      02_14_12                                
 651             (3,14,12)        605.170983       323.575195       338.575195      03_14_12                                
 652             (4,14,12)        1017.17098       535.603393       550.603393      04_14_12                                
 653             (1,14,13)        200.924461       118.426318       133.426318      01_14_13                                
 654             (2,14,13)        508.424461       275.926795       290.926795      02_14_13                                
 655             (3,14,13)        605.424461       323.017336       338.017336      03_14_13                                
 656             (4,14,13)        1017.42446       535.108094       550.108094      04_14_13                                
 657             (1,14,14)        201.373498       117.326952       132.326952      01_14_14                                
 658             (2,14,14)        508.873498       274.839487       289.839487      02_14_14                                
 659             (3,14,14)        605.873498       322.189685       337.189685      03_14_14                                
 660             (4,14,14)        1017.87350       534.540367       549.540367      04_14_14                                
 661              (1,15,3)        200.796791       118.738892       133.738892      01_15_03                                
 662              (2,15,3)        508.296791       276.239377       291.239377      02_15_03                                
 663              (3,15,3)        605.296791       323.340745       338.340745      03_15_03                                
 664              (4,15,3)        1017.29679       535.442359       550.442359      04_15_03                                
 665              (1,15,4)        200.549365       119.344658       134.344658      01_15_04                                
 666              (2,15,4)        508.049365       276.844872       291.844872      02_15_04                                
 667              (3,15,4)        605.049365       323.885952       338.885952      03_15_04                                
 668              (4,15,4)        1017.04937       535.927130       550.927130      04_15_04                                
 669              (1,15,5)        200.288698       119.982844       134.982844      01_15_05                                
 670              (2,15,5)        507.788698       277.482957       292.482957      02_15_05                                
 671              (3,15,5)        604.788698       324.498884       339.498884      03_15_05                                
 672              (4,15,5)        1016.78870       536.514848       551.514848      04_15_05                                
 673              (1,15,6)        200.041083       120.589073       135.589073      01_15_06                                
 674              (2,15,6)        507.541083       278.089163       293.089163      02_15_06                                
 675              (3,15,6)        604.541083       325.097261       340.097261      03_15_06                                
 676              (4,15,6)        1016.54108       537.105377       552.105377      04_15_06                                
 677              (1,15,7)        199.832627       121.099431       136.099431      01_15_07                                
 678              (2,15,7)        507.332627       278.599523       293.599523      02_15_07                                
 679              (3,15,7)        604.332627       325.605913       340.605913      03_15_07                                
 680              (4,15,7)        1016.33263       537.612316       552.612316      04_15_07                                
 681              (1,15,8)        199.710870       121.397525       136.397525      01_15_08                                
 682              (2,15,8)        507.210870       278.897619       293.897619      02_15_08                                
 683              (3,15,8)        604.210870       325.903651       340.903651      03_15_08                                
 684              (4,15,8)        1016.21087       537.909694       552.909694      04_15_08                                
 685              (1,15,9)        199.714739       121.388053       136.388053      01_15_09                                
 686              (2,15,9)        507.214739       278.888150       293.888150      02_15_09                                
 687              (3,15,9)        604.214739       325.894725       340.894725      03_15_09                                
 688              (4,15,9)        1016.21474       537.901313       552.901313      04_15_09                                
 689             (1,15,10)        199.846720       121.064926       136.064926      01_15_10                                
 690             (2,15,10)        507.346720       278.565033       293.565033      02_15_10                                
 691             (3,15,10)        604.346720       325.574355       340.574355      03_15_10                                
 692             (4,15,10)        1016.34672       537.583697       552.583697      04_15_10                                
 693             (1,15,11)        200.070388       120.517325       135.517325      01_15_11                                
 694             (2,15,11)        507.570388       278.017461       293.017461      02_15_11                                
 695             (3,15,11)        604.570388       325.036117       340.036117      03_15_11                                
 696             (4,15,11)        1016.57039       537.054817       552.054817      04_15_11                                
 697             (1,15,12)        200.329849       119.882093       134.882093      01_15_12                                
 698             (2,15,12)        507.829849       277.382335       292.382335      02_15_12                                
 699             (3,15,12)        604.829849       324.428620       339.428620      03_15_12                                
 700             (4,15,12)        1016.82985       536.475017       551.475017      04_15_12                                
 701             (1,15,13)        200.561504       119.314939       134.314939      01_15_13                                
 702             (2,15,13)        508.061504       276.815463       291.815463      02_15_13                                
 703             (3,15,13)        605.061504       323.923852       338.923852      03_15_13                                
 704             (4,15,13)        1017.06150       536.032504       551.032504      04_15_13                                
 705              (1,16,3)        200.801970       118.726212       133.726212      01_16_03                                
 706              (2,16,3)        508.301970       276.238848       291.238848      02_16_03                                
 707              (3,16,3)        605.301970       323.596121       338.596121      03_16_03                                
 708              (4,16,3)        1017.30197       535.953892       550.953892      04_16_03                                
 709              (1,16,4)        200.292569       119.973365       134.973365      01_16_04                                
 710              (2,16,4)        507.792569       277.473863       292.473863      02_16_04                                
 711              (3,16,4)        604.792569       324.566471       339.566471      03_16_04                                
 712              (4,16,4)        1016.79257       536.659302       551.659302      04_16_04                                
 713              (1,16,5)        199.941030       120.834030       135.834030      01_16_05                                
 714              (2,16,5)        507.441030       278.334217       293.334217      02_16_05                                
 715              (3,16,5)        604.441030       325.363841       340.363841      03_16_05                                
 716              (4,16,5)        1016.44103       537.393536       552.393536      04_16_05                                
 717              (1,16,6)        199.596454       121.677647       136.677647      01_16_06                                
 718              (2,16,6)        507.096454       279.177785       294.177785      02_16_06                                
 719              (3,16,6)        604.096454       326.192067       341.192067      03_16_06                                
 720              (4,16,6)        1016.09645       538.206380       553.206380      04_16_06                                
 721              (1,16,7)        199.271613       122.472949       137.472949      01_16_07                                
 722              (2,16,7)        506.771613       279.973105       294.973105      02_16_07                                
 723              (3,16,7)        603.771613       326.985629       341.985629      03_16_07                                
 724              (4,16,7)        1015.77161       538.998181       553.998181      04_16_07                                
 725              (1,16,8)        199.066488       122.975149       137.975149      01_16_08                                
 726              (2,16,8)        506.566488       280.475310       295.475310      02_16_08                                
 727              (3,16,8)        603.566488       327.486676       342.486676      03_16_08                                
 728              (4,16,8)        1015.56649       539.498067       554.498067      04_16_08                                
 729              (1,16,9)        199.068117       122.971163       137.971163      01_16_09                                
 730              (2,16,9)        506.568117       280.471326       295.471326      02_16_09                                
 731              (3,16,9)        603.568117       327.483067       342.483067      03_16_09                                
 732              (4,16,9)        1015.56812       539.494833       554.494833      04_16_09                                
 733             (1,16,10)        199.283519       122.443798       137.443798      01_16_10                                
 734             (2,16,10)        506.783519       279.943978       294.943978      02_16_10                                
 735             (3,16,10)        603.783519       326.960761       341.960761      03_16_10                                
 736             (4,16,10)        1015.78352       538.977581       553.977581      04_16_10                                
 737             (1,16,11)        199.639173       121.573058       136.573058      01_16_11                                
 738             (2,16,11)        507.139173       279.073300       294.073300      02_16_11                                
 739             (3,16,11)        604.139173       326.110342       341.110342      03_16_11                                
 740             (4,16,11)        1016.13917       538.147472       553.147472      04_16_11                                
 741             (1,16,12)        200.037182       120.598623       135.598623      01_16_12                                
 742             (2,16,12)        507.537182       278.099190       293.099190      02_16_12                                
 743             (3,16,12)        604.537182       325.210404       340.210404      03_16_12                                
 744             (4,16,12)        1016.53718       537.321887       552.321887      04_16_12                                
 745             (1,16,13)        200.484448       119.503594       134.503594      01_16_13                                
 746             (2,16,13)        507.984448       277.016385       292.016385      02_16_13                                
 747             (3,16,13)        604.984448       324.399812       339.399812      03_16_13                                
 748             (4,16,13)        1016.98445       536.783799       551.783799      04_16_13                                
 749              (1,17,4)        199.921514       120.881810       135.881810      01_17_04                                
 750              (2,17,4)        507.421514       278.382307       293.382307      02_17_04                                
 751              (3,17,4)        604.421514       325.486066       340.486066      03_17_04                                
 752              (4,17,4)        1016.42151       537.590077       552.590077      04_17_04                                
 753              (1,17,5)        199.597653       121.674711       136.674711      01_17_05                                
 754              (2,17,5)        507.097653       279.174954       294.174954      02_17_05                                
 755              (3,17,5)        604.097653       326.219258       341.219258      03_17_05                                
 756              (4,17,5)        1016.09765       538.263668       553.263668      04_17_05                                
 757              (1,17,6)        199.134535       122.808551       137.808551      01_17_06                                
 758              (2,17,6)        506.634535       280.308762       295.308762      02_17_06                                
 759              (3,17,6)        603.634535       327.333960       342.333960      03_17_06                                
 760              (4,17,6)        1015.63454       539.359215       554.359215      04_17_06                                
 761              (1,17,7)        198.590865       124.139606       139.139606      01_17_07                                
 762              (2,17,7)        506.090865       281.639920       296.639920      02_17_07                                
 763              (3,17,7)        603.090865       328.670327       343.670327      03_17_07                                
 764              (4,17,7)        1015.09087       540.700802       555.700802      04_17_07                                
 765              (1,17,8)        198.214185       125.061823       140.061823      01_17_08                                
 766              (2,17,8)        505.714185       282.562139       297.562139      02_17_08                                
 767              (3,17,8)        602.714185       329.586516       344.586516      03_17_08                                
 768              (4,17,8)        1014.71418       541.610946       556.610946      04_17_08                                
 769              (1,17,9)        198.206632       125.080315       140.080315      01_17_09                                
 770              (2,17,9)        505.706632       282.580625       297.580625      02_17_09                                
 771              (3,17,9)        602.706632       329.602579       344.602579      03_17_09                                
 772              (4,17,9)        1014.70663       541.624580       556.624580      04_17_09                                
 773             (1,17,10)        198.581864       124.161644       139.161644      01_17_10                                
 774             (2,17,10)        506.081864       281.661973       296.661973      02_17_10                                
 775             (3,17,10)        603.081864       328.690670       343.690670      03_17_10                                
 776             (4,17,10)        1015.08186       540.719429       555.719429      04_17_10                                
 777             (1,17,11)        199.179156       122.699309       137.699309      01_17_11                                
 778             (2,17,11)        506.679156       280.199699       295.199699      02_17_11                                
 779             (3,17,11)        603.679156       327.261116       342.261116      03_17_11                                
 780             (4,17,11)        1015.67916       539.322679       554.322679      04_17_11                                
 781             (1,17,12)        199.749030       121.304100       136.304100      01_17_12                                
 782             (2,17,12)        507.249030       278.804993       293.804993      02_17_12                                
 783             (3,17,12)        604.249030       325.980179       340.980179      03_17_12                                
 784             (4,17,12)        1016.24903       538.155788       553.155788      04_17_12                                
 785             (1,17,13)        200.350613       119.831257       134.831257      01_17_13                                
 786             (2,17,13)        507.850613       277.344393       292.344393      02_17_13                                
 787             (3,17,13)        604.850613       324.798498       339.798498      03_17_13                                
 788             (4,17,13)        1016.85061       537.253335       552.253335      04_17_13                                
 789              (1,18,4)        199.926688       120.869144       135.869144      01_18_04                                
 790              (2,18,4)        507.426688       278.381908       293.381908      02_18_04                                
 791              (3,18,4)        604.426688       325.743495       340.743495      03_18_04                                
 792              (4,18,4)        1016.42669       538.105588       553.105588      04_18_04                                
 793              (1,18,5)        199.412623       122.127716       137.127716      01_18_05                                
 794              (2,18,5)        506.912623       279.628210       294.628210      02_18_05                                
 795              (3,18,5)        603.912623       326.723429       341.723429      03_18_05                                
 796              (4,18,5)        1015.91262       538.818877       553.818877      04_18_05                                
 797              (1,18,6)        198.759505       123.726729       138.726729      01_18_06                                
 798              (2,18,6)        506.259505       281.227067       296.227067      02_18_06                                
 799              (3,18,6)        603.259505       328.274657       343.274657      03_18_06                                
 800              (4,18,6)        1015.25951       540.322358       555.322358      04_18_06                                
 801              (1,18,7)        197.747117       126.205334       141.205334      01_18_07                                
 802              (2,18,7)        505.247117       283.706175       298.706175      02_18_07                                
 803              (3,18,7)        602.247117       330.802577       345.802577      03_18_07                                
 804              (4,18,7)        1014.24712       542.899199       557.899199      04_18_07                                
 805              (1,18,8)        196.991966       128.054152       143.054152      01_18_08                                
 806              (2,18,8)        504.491966       285.554900       300.554900      02_18_08                                
 807              (3,18,8)        601.491966       332.611350       347.611350      03_18_08                                
 808              (4,18,8)        1013.49197       544.667921       559.667921      04_18_08                                
 809              (1,18,9)        196.960094       128.132184       143.132184      01_18_09                                
 810              (2,18,9)        504.460094       285.632865       300.632865      02_18_09                                
 811              (3,18,9)        601.460094       332.673596       347.673596      03_18_09                                
 812              (4,18,9)        1013.46009       544.714410       559.714410      04_18_09                                
 813             (1,18,10)        197.659877       126.418923       141.418923      01_18_10                                
 814             (2,18,10)        505.159877       283.919630       298.919630      02_18_10                                
 815             (3,18,10)        602.159877       330.965545       345.965545      03_18_10                                
 816             (4,18,10)        1014.15988       543.011554       558.011554      04_18_10                                
 817             (1,18,11)        198.769715       123.701731       138.701731      01_18_11                                
 818             (2,18,11)        506.269715       281.202365       296.202365      02_18_11                                
 819             (3,18,11)        603.269715       328.307604       343.307604      03_18_11                                
 820             (4,18,11)        1015.26972       540.413094       555.413094      04_18_11                                
 821             (1,18,12)        199.515210       121.876554       136.876554      01_18_12                                
 822             (2,18,12)        507.015210       279.389481       294.389481      02_18_12                                
 823             (3,18,12)        604.015210       326.773979       341.773979      03_18_12                                
 824             (4,18,12)        1016.01521       539.159035       554.159035      04_18_12                                
 825              (1,19,7)        196.671480       128.838791       143.838791      01_19_07                                
 826              (2,19,7)        504.171480       286.352374       301.352374      02_19_07                                
 827              (3,19,7)        601.171480       333.737117       348.737117      03_19_07                                
 828              (4,19,7)        1013.17148       546.122397       561.122397      04_19_07                                
 829              (1,19,8)        195.043839       132.823705       147.823705      01_19_08                                
 830              (2,19,8)        502.543839       290.325828       305.325828      02_19_08                                
 831              (3,19,8)        599.543839       337.441062       352.441062      03_19_08                                
 832              (4,19,8)        1011.54384       549.556523       564.556523      04_19_08                                
 833              (1,19,9)        194.971267       133.001381       148.001381      01_19_09                                
 834              (2,19,9)        502.471267       290.503114       305.503114      02_19_09                                
 835              (3,19,9)        599.471267       337.563392       352.563392      03_19_09                                
 836              (4,19,9)        1011.47127       549.623768       564.623768      04_19_09                                
 837             (1,19,10)        196.319169       129.701345       144.701345      01_19_10                                
 838             (2,19,10)        503.819169       287.201961       302.201961      02_19_10                                
 839             (3,19,10)        600.819169       334.241804       349.241804      03_19_10                                
 840             (4,19,10)        1012.81917       546.281729       561.281729      04_19_10                                
 ---------------------------------------------------------------------------------------------------------------------------


 UBDSV1 SAVING           STO-SS ON UNIT   1020 AT TIME STEP      1, STRESS PERIOD      2
 UBDSV1 SAVING           STO-SY ON UNIT   1020 AT TIME STEP      1, STRESS PERIOD      2
 UBDSV1 SAVING     FLOW-JA-FACE ON UNIT   1020 AT TIME STEP      1, STRESS PERIOD      2
 UBDSV06 SAVING       DATA-SPDIS IN MODEL EX-GWF-CSUB-P04  PACKAGE NPF             CONNECTED TO MODEL EX-GWF-CSUB-P04  PACKAGE NPF              ON UNIT   1020 AT TIME STEP      1, STRESS PERIOD      2
 UBDSV1 SAVING  CSUB-CGELASTIC  ON UNIT   1020 AT TIME STEP      1, STRESS PERIOD      2
 UBDSV06 SAVING    CSUB-ELASTIC  IN MODEL EX-GWF-CSUB-P04  PACKAGE EX-GWF-CSUB-P04 CONNECTED TO MODEL EX-GWF-CSUB-P04  PACKAGE CSUB             ON UNIT   1020 AT TIME STEP      1, STRESS PERIOD      2
 UBDSV06 SAVING  CSUB-INELASTIC  IN MODEL EX-GWF-CSUB-P04  PACKAGE EX-GWF-CSUB-P04 CONNECTED TO MODEL EX-GWF-CSUB-P04  PACKAGE CSUB             ON UNIT   1020 AT TIME STEP      1, STRESS PERIOD      2
 UBDSV1 SAVING  CSUB-WATERCOMP  ON UNIT   1020 AT TIME STEP      1, STRESS PERIOD      2
 UBDSV06 SAVING              WEL IN MODEL EX-GWF-CSUB-P04  PACKAGE EX-GWF-CSUB-P04 CONNECTED TO MODEL EX-GWF-CSUB-P04  PACKAGE WEL_0            ON UNIT   1020 AT TIME STEP      1, STRESS PERIOD      2
 UBDSV06 SAVING              RCH IN MODEL EX-GWF-CSUB-P04  PACKAGE EX-GWF-CSUB-P04 CONNECTED TO MODEL EX-GWF-CSUB-P04  PACKAGE RCH_0            ON UNIT   1020 AT TIME STEP      1, STRESS PERIOD      2
 UBDSV06 SAVING              CHD IN MODEL EX-GWF-CSUB-P04  PACKAGE EX-GWF-CSUB-P04 CONNECTED TO MODEL EX-GWF-CSUB-P04  PACKAGE CHD_0            ON UNIT   1020 AT TIME STEP      1, STRESS PERIOD      2

 HEAD WILL BE SAVED ON UNIT 1021 AT END OF TIME STEP    1, STRESS PERIOD    2


  VOLUME BUDGET FOR ENTIRE MODEL AT END OF TIME STEP    1, STRESS PERIOD   2
  ---------------------------------------------------------------------------------------------------

     CUMULATIVE VOLUME      L**3       RATES FOR THIS TIME STEP      L**3/T          PACKAGE NAME    
     ------------------                 ------------------------                     ----------------

           IN:                                      IN:
           ---                                      ---
              STO-SS =           0.0000                STO-SS =           0.0000     STORAGE                          
              STO-SY =    51115669.5970                STO-SY =      139947.0762     STORAGE                          
      CSUB-CGELASTIC =      251917.5746        CSUB-CGELASTIC =         689.7127     CSUB                             
        CSUB-ELASTIC =      620198.3066          CSUB-ELASTIC =        1698.0104     CSUB                             
      CSUB-INELASTIC =      378653.5374        CSUB-INELASTIC =        1036.6969     CSUB                             
      CSUB-WATERCOMP =      326966.4072        CSUB-WATERCOMP =         895.1852     CSUB                             
                 WEL =           0.0000                   WEL =           0.0000     WEL_0                            
                 RCH =    14463900.0000                   RCH =       39600.0000     RCH_0                            
                 CHD =           0.0000                   CHD =           0.0000     CHD_0                            

            TOTAL IN =    67157305.4228              TOTAL IN =      183866.6815

          OUT:                                     OUT:
          ----                                     ----
              STO-SS =           0.0000                STO-SS =           0.0000     STORAGE                          
              STO-SY =           0.0000                STO-SY =           0.0000     STORAGE                          
      CSUB-CGELASTIC =      107626.2594        CSUB-CGELASTIC =         294.6646     CSUB                             
        CSUB-ELASTIC =           0.0000          CSUB-ELASTIC =           0.0000     CSUB                             
      CSUB-INELASTIC =           0.0000        CSUB-INELASTIC =           0.0000     CSUB                             
      CSUB-WATERCOMP =           0.0000        CSUB-WATERCOMP =           0.0000     CSUB                             
                 WEL =    52596000.0000                   WEL =      144000.0000     WEL_0                            
                 RCH =           0.0000                   RCH =           0.0000     RCH_0                            
                 CHD =    14453679.1634                   CHD =       39572.0169     CHD_0                            

           TOTAL OUT =    67157305.4228             TOTAL OUT =      183866.6815

            IN - OUT =       9.0897E-07              IN - OUT =       2.4447E-09

 PERCENT DISCREPANCY =           0.00     PERCENT DISCREPANCY =           0.00




         TIME SUMMARY AT END OF TIME STEP    1 IN STRESS PERIOD    2
                    SECONDS     MINUTES      HOURS       DAYS        YEARS
                    -----------------------------------------------------------
   TIME STEP LENGTH 3.15576E+07 5.25960E+05  8766.0      365.25      1.0000    
 STRESS PERIOD TIME 3.15576E+07 5.25960E+05  8766.0      365.25      1.0000    
         TOTAL TIME 3.15576E+07 5.25960E+05  8766.0      365.25      1.0000    


end timestep


start timestep kper="2" kstp="2" mode="normal"

 UBDSV1 SAVING           STO-SS ON UNIT   1020 AT TIME STEP      2, STRESS PERIOD      2
 UBDSV1 SAVING           STO-SY ON UNIT   1020 AT TIME STEP      2, STRESS PERIOD      2
 UBDSV1 SAVING     FLOW-JA-FACE ON UNIT   1020 AT TIME STEP      2, STRESS PERIOD      2
 UBDSV06 SAVING       DATA-SPDIS IN MODEL EX-GWF-CSUB-P04  PACKAGE NPF             CONNECTED TO MODEL EX-GWF-CSUB-P04  PACKAGE NPF              ON UNIT   1020 AT TIME STEP      2, STRESS PERIOD      2
 UBDSV1 SAVING  CSUB-CGELASTIC  ON UNIT   1020 AT TIME STEP      2, STRESS PERIOD      2
 UBDSV06 SAVING    CSUB-ELASTIC  IN MODEL EX-GWF-CSUB-P04  PACKAGE EX-GWF-CSUB-P04 CONNECTED TO MODEL EX-GWF-CSUB-P04  PACKAGE CSUB             ON UNIT   1020 AT TIME STEP      2, STRESS PERIOD      2
 UBDSV06 SAVING  CSUB-INELASTIC  IN MODEL EX-GWF-CSUB-P04  PACKAGE EX-GWF-CSUB-P04 CONNECTED TO MODEL EX-GWF-CSUB-P04  PACKAGE CSUB             ON UNIT   1020 AT TIME STEP      2, STRESS PERIOD      2
 UBDSV1 SAVING  CSUB-WATERCOMP  ON UNIT   1020 AT TIME STEP      2, STRESS PERIOD      2
 UBDSV06 SAVING              WEL IN MODEL EX-GWF-CSUB-P04  PACKAGE EX-GWF-CSUB-P04 CONNECTED TO MODEL EX-GWF-CSUB-P04  PACKAGE WEL_0            ON UNIT   1020 AT TIME STEP      2, STRESS PERIOD      2
 UBDSV06 SAVING              RCH IN MODEL EX-GWF-CSUB-P04  PACKAGE EX-GWF-CSUB-P04 CONNECTED TO MODEL EX-GWF-CSUB-P04  PACKAGE RCH_0            ON UNIT   1020 AT TIME STEP      2, STRESS PERIOD      2
 UBDSV06 SAVING              CHD IN MODEL EX-GWF-CSUB-P04  PACKAGE EX-GWF-CSUB-P04 CONNECTED TO MODEL EX-GWF-CSUB-P04  PACKAGE CHD_0            ON UNIT   1020 AT TIME STEP      2, STRESS PERIOD      2

 HEAD WILL BE SAVED ON UNIT 1021 AT END OF TIME STEP    2, STRESS PERIOD    2


  VOLUME BUDGET FOR ENTIRE MODEL AT END OF TIME STEP    2, STRESS PERIOD   2
  ---------------------------------------------------------------------------------------------------

     CUMULATIVE VOLUME      L**3       RATES FOR THIS TIME STEP      L**3/T          PACKAGE NAME    
     ------------------                 ------------------------                     ----------------

           IN:                                      IN:
           ---                                      ---
              STO-SS =           0.0000                STO-SS =           0.0000     STORAGE                          
              STO-SY =   103048014.4724                STO-SY =      142183.0113     STORAGE                          
      CSUB-CGELASTIC =      375798.3690        CSUB-CGELASTIC =         339.1671     CSUB                             
        CSUB-ELASTIC =     1016778.8120          CSUB-ELASTIC =        1085.7782     CSUB                             
      CSUB-INELASTIC =      420821.4235        CSUB-INELASTIC =         115.4494     CSUB                             
      CSUB-WATERCOMP =      518518.6952        CSUB-WATERCOMP =         524.4416     CSUB                             
                 WEL =           0.0000                   WEL =           0.0000     WEL_0                            
                 RCH =    28927800.0000                   RCH =       39600.0000     RCH_0                            
                 CHD =           0.0000                   CHD =           0.0000     CHD_0                            

            TOTAL IN =   134307731.7721              TOTAL IN =      183847.8476

          OUT:                                     OUT:
          ----                                     ----
              STO-SS =           0.0000                STO-SS =           0.0000     STORAGE                          
              STO-SY =           0.0000                STO-SY =           0.0000     STORAGE                          
      CSUB-CGELASTIC =      219242.9277        CSUB-CGELASTIC =         305.5898     CSUB                             
        CSUB-ELASTIC =           0.0000          CSUB-ELASTIC =           0.0000     CSUB                             
      CSUB-INELASTIC =           0.0000        CSUB-INELASTIC =           0.0000     CSUB                             
      CSUB-WATERCOMP =           0.0000        CSUB-WATERCOMP =           0.0000     CSUB                             
                 WEL =   105192000.0000                   WEL =      144000.0000     WEL_0                            
                 RCH =           0.0000                   RCH =           0.0000     RCH_0                            
                 CHD =    28896488.8447                   CHD =       39542.2579     CHD_0                            

           TOTAL OUT =   134307731.7725             TOTAL OUT =      183847.8476

            IN - OUT =      -3.8636E-04              IN - OUT =      -1.0603E-06

 PERCENT DISCREPANCY =          -0.00     PERCENT DISCREPANCY =          -0.00




         TIME SUMMARY AT END OF TIME STEP    2 IN STRESS PERIOD    2
                    SECONDS     MINUTES      HOURS       DAYS        YEARS
                    -----------------------------------------------------------
   TIME STEP LENGTH 3.15576E+07 5.25960E+05  8766.0      365.25      1.0000    
 STRESS PERIOD TIME 6.31152E+07 1.05192E+06  17532.      730.50      2.0000    
         TOTAL TIME 6.31152E+07 1.05192E+06  17532.      730.50      2.0000    


end timestep


start timestep kper="2" kstp="3" mode="normal"

 UBDSV1 SAVING           STO-SS ON UNIT   1020 AT TIME STEP      3, STRESS PERIOD      2
 UBDSV1 SAVING           STO-SY ON UNIT   1020 AT TIME STEP      3, STRESS PERIOD      2
 UBDSV1 SAVING     FLOW-JA-FACE ON UNIT   1020 AT TIME STEP      3, STRESS PERIOD      2
 UBDSV06 SAVING       DATA-SPDIS IN MODEL EX-GWF-CSUB-P04  PACKAGE NPF             CONNECTED TO MODEL EX-GWF-CSUB-P04  PACKAGE NPF              ON UNIT   1020 AT TIME STEP      3, STRESS PERIOD      2
 UBDSV1 SAVING  CSUB-CGELASTIC  ON UNIT   1020 AT TIME STEP      3, STRESS PERIOD      2
 UBDSV06 SAVING    CSUB-ELASTIC  IN MODEL EX-GWF-CSUB-P04  PACKAGE EX-GWF-CSUB-P04 CONNECTED TO MODEL EX-GWF-CSUB-P04  PACKAGE CSUB             ON UNIT   1020 AT TIME STEP      3, STRESS PERIOD      2
 UBDSV06 SAVING  CSUB-INELASTIC  IN MODEL EX-GWF-CSUB-P04  PACKAGE EX-GWF-CSUB-P04 CONNECTED TO MODEL EX-GWF-CSUB-P04  PACKAGE CSUB             ON UNIT   1020 AT TIME STEP      3, STRESS PERIOD      2
 UBDSV1 SAVING  CSUB-WATERCOMP  ON UNIT   1020 AT TIME STEP      3, STRESS PERIOD      2
 UBDSV06 SAVING              WEL IN MODEL EX-GWF-CSUB-P04  PACKAGE EX-GWF-CSUB-P04 CONNECTED TO MODEL EX-GWF-CSUB-P04  PACKAGE WEL_0            ON UNIT   1020 AT TIME STEP      3, STRESS PERIOD      2
 UBDSV06 SAVING              RCH IN MODEL EX-GWF-CSUB-P04  PACKAGE EX-GWF-CSUB-P04 CONNECTED TO MODEL EX-GWF-CSUB-P04  PACKAGE RCH_0            ON UNIT   1020 AT TIME STEP      3, STRESS PERIOD      2
 UBDSV06 SAVING              CHD IN MODEL EX-GWF-CSUB-P04  PACKAGE EX-GWF-CSUB-P04 CONNECTED TO MODEL EX-GWF-CSUB-P04  PACKAGE CHD_0            ON UNIT   1020 AT TIME STEP      3, STRESS PERIOD      2

 HEAD WILL BE SAVED ON UNIT 1021 AT END OF TIME STEP    3, STRESS PERIOD    2


  VOLUME BUDGET FOR ENTIRE MODEL AT END OF TIME STEP    3, STRESS PERIOD   2
  ---------------------------------------------------------------------------------------------------

     CUMULATIVE VOLUME      L**3       RATES FOR THIS TIME STEP      L**3/T          PACKAGE NAME    
     ------------------                 ------------------------                     ----------------

           IN:                                      IN:
           ---                                      ---
              STO-SS =           0.0000                STO-SS =           0.0000     STORAGE                          
              STO-SY =   155001229.4509                STO-SY =      142240.1505     STORAGE                          
      CSUB-CGELASTIC =      495821.3592        CSUB-CGELASTIC =         328.6050     CSUB                             
        CSUB-ELASTIC =     1406729.9168          CSUB-ELASTIC =        1067.6279     CSUB                             
      CSUB-INELASTIC =      442758.4534        CSUB-INELASTIC =          60.0603     CSUB                             
      CSUB-WATERCOMP =      705854.7599        CSUB-WATERCOMP =         512.8982     CSUB                             
                 WEL =           0.0000                   WEL =           0.0000     WEL_0                            
                 RCH =    43391700.0000                   RCH =       39600.0000     RCH_0                            
                 CHD =           0.0000                   CHD =           0.0000     CHD_0                            

            TOTAL IN =   201444093.9402              TOTAL IN =      183809.3420

          OUT:                                     OUT:
          ----                                     ----
              STO-SS =           0.0000                STO-SS =           0.0000     STORAGE                          
              STO-SY =           0.0000                STO-SY =           0.0000     STORAGE                          
      CSUB-CGELASTIC =      331444.2412        CSUB-CGELASTIC =         307.1905     CSUB                             
        CSUB-ELASTIC =           0.0000          CSUB-ELASTIC =           0.0000     CSUB                             
      CSUB-INELASTIC =           0.0000        CSUB-INELASTIC =           0.0000     CSUB                             
      CSUB-WATERCOMP =           0.0000        CSUB-WATERCOMP =           0.0000     CSUB                             
                 WEL =   157788000.0000                   WEL =      144000.0000     WEL_0                            
                 RCH =           0.0000                   RCH =           0.0000     RCH_0                            
                 CHD =    43324649.6995                   CHD =       39502.1516     CHD_0                            

           TOTAL OUT =   201444093.9407             TOTAL OUT =      183809.3420

            IN - OUT =      -4.2194E-04              IN - OUT =      -9.7381E-08

 PERCENT DISCREPANCY =          -0.00     PERCENT DISCREPANCY =          -0.00




         TIME SUMMARY AT END OF TIME STEP    3 IN STRESS PERIOD    2
                    SECONDS     MINUTES      HOURS       DAYS        YEARS
                    -----------------------------------------------------------
   TIME STEP LENGTH 3.15576E+07 5.25960E+05  8766.0      365.25      1.0000    
 STRESS PERIOD TIME 9.46728E+07 1.57788E+06  26298.      1095.8      3.0000    
         TOTAL TIME 9.46728E+07 1.57788E+06  26298.      1095.8      3.0000    


end timestep


start timestep kper="2" kstp="4" mode="normal"

 UBDSV1 SAVING           STO-SS ON UNIT   1020 AT TIME STEP      4, STRESS PERIOD      2
 UBDSV1 SAVING           STO-SY ON UNIT   1020 AT TIME STEP      4, STRESS PERIOD      2
 UBDSV1 SAVING     FLOW-JA-FACE ON UNIT   1020 AT TIME STEP      4, STRESS PERIOD      2
 UBDSV06 SAVING       DATA-SPDIS IN MODEL EX-GWF-CSUB-P04  PACKAGE NPF             CONNECTED TO MODEL EX-GWF-CSUB-P04  PACKAGE NPF              ON UNIT   1020 AT TIME STEP      4, STRESS PERIOD      2
 UBDSV1 SAVING  CSUB-CGELASTIC  ON UNIT   1020 AT TIME STEP      4, STRESS PERIOD      2
 UBDSV06 SAVING    CSUB-ELASTIC  IN MODEL EX-GWF-CSUB-P04  PACKAGE EX-GWF-CSUB-P04 CONNECTED TO MODEL EX-GWF-CSUB-P04  PACKAGE CSUB             ON UNIT   1020 AT TIME STEP      4, STRESS PERIOD      2
 UBDSV06 SAVING  CSUB-INELASTIC  IN MODEL EX-GWF-CSUB-P04  PACKAGE EX-GWF-CSUB-P04 CONNECTED TO MODEL EX-GWF-CSUB-P04  PACKAGE CSUB             ON UNIT   1020 AT TIME STEP      4, STRESS PERIOD      2
 UBDSV1 SAVING  CSUB-WATERCOMP  ON UNIT   1020 AT TIME STEP      4, STRESS PERIOD      2
 UBDSV06 SAVING              WEL IN MODEL EX-GWF-CSUB-P04  PACKAGE EX-GWF-CSUB-P04 CONNECTED TO MODEL EX-GWF-CSUB-P04  PACKAGE WEL_0            ON UNIT   1020 AT TIME STEP      4, STRESS PERIOD      2
 UBDSV06 SAVING              RCH IN MODEL EX-GWF-CSUB-P04  PACKAGE EX-GWF-CSUB-P04 CONNECTED TO MODEL EX-GWF-CSUB-P04  PACKAGE RCH_0            ON UNIT   1020 AT TIME STEP      4, STRESS PERIOD      2
 UBDSV06 SAVING              CHD IN MODEL EX-GWF-CSUB-P04  PACKAGE EX-GWF-CSUB-P04 CONNECTED TO MODEL EX-GWF-CSUB-P04  PACKAGE CHD_0            ON UNIT   1020 AT TIME STEP      4, STRESS PERIOD      2

 HEAD WILL BE SAVED ON UNIT 1021 AT END OF TIME STEP    4, STRESS PERIOD    2


  VOLUME BUDGET FOR ENTIRE MODEL AT END OF TIME STEP    4, STRESS PERIOD   2
  ---------------------------------------------------------------------------------------------------

     CUMULATIVE VOLUME      L**3       RATES FOR THIS TIME STEP      L**3/T          PACKAGE NAME    
     ------------------                 ------------------------                     ----------------

           IN:                                      IN:
           ---                                      ---
              STO-SS =           0.0000                STO-SS =           0.0000     STORAGE                          
              STO-SY =   206939018.1060                STO-SY =      142197.9156     STORAGE                          
      CSUB-CGELASTIC =      615626.8779        CSUB-CGELASTIC =         328.0096     CSUB                             
        CSUB-ELASTIC =     1796039.9798          CSUB-ELASTIC =        1065.8729     CSUB                             
      CSUB-INELASTIC =      462487.3227        CSUB-INELASTIC =          54.0147     CSUB                             
      CSUB-WATERCOMP =      892899.1751        CSUB-WATERCOMP =         512.0997     CSUB                             
                 WEL =           0.0000                   WEL =           0.0000     WEL_0                            
                 RCH =    57855600.0000                   RCH =       39600.0000     RCH_0                            
                 CHD =           0.0000                   CHD =           0.0000     CHD_0                            

            TOTAL IN =   268561671.4614              TOTAL IN =      183757.9124

          OUT:                                     OUT:
          ----                                     ----
              STO-SS =           0.0000                STO-SS =           0.0000     STORAGE                          
              STO-SY =           0.0000                STO-SY =           0.0000     STORAGE                          
      CSUB-CGELASTIC =      443850.1622        CSUB-CGELASTIC =         307.7506     CSUB                             
        CSUB-ELASTIC =           0.0000          CSUB-ELASTIC =           0.0000     CSUB                             
      CSUB-INELASTIC =           0.0000        CSUB-INELASTIC =           0.0000     CSUB                             
      CSUB-WATERCOMP =           0.0000        CSUB-WATERCOMP =           0.0000     CSUB                             
                 WEL =   210384000.0000                   WEL =      144000.0000     WEL_0                            
                 RCH =           0.0000                   RCH =           0.0000     RCH_0                            
                 CHD =    57733821.2997                   CHD =       39450.1618     CHD_0                            

           TOTAL OUT =   268561671.4619             TOTAL OUT =      183757.9124

            IN - OUT =      -4.5085E-04              IN - OUT =      -7.9192E-08

 PERCENT DISCREPANCY =          -0.00     PERCENT DISCREPANCY =          -0.00




         TIME SUMMARY AT END OF TIME STEP    4 IN STRESS PERIOD    2
                    SECONDS     MINUTES      HOURS       DAYS        YEARS
                    -----------------------------------------------------------
   TIME STEP LENGTH 3.15576E+07 5.25960E+05  8766.0      365.25      1.0000    
 STRESS PERIOD TIME 1.26230E+08 2.10384E+06  35064.      1461.0      4.0000    
         TOTAL TIME 1.26230E+08 2.10384E+06  35064.      1461.0      4.0000    


end timestep


start timestep kper="2" kstp="5" mode="normal"

 UBDSV1 SAVING           STO-SS ON UNIT   1020 AT TIME STEP      5, STRESS PERIOD      2
 UBDSV1 SAVING           STO-SY ON UNIT   1020 AT TIME STEP      5, STRESS PERIOD      2
 UBDSV1 SAVING     FLOW-JA-FACE ON UNIT   1020 AT TIME STEP      5, STRESS PERIOD      2
 UBDSV06 SAVING       DATA-SPDIS IN MODEL EX-GWF-CSUB-P04  PACKAGE NPF             CONNECTED TO MODEL EX-GWF-CSUB-P04  PACKAGE NPF              ON UNIT   1020 AT TIME STEP      5, STRESS PERIOD      2
 UBDSV1 SAVING  CSUB-CGELASTIC  ON UNIT   1020 AT TIME STEP      5, STRESS PERIOD      2
 UBDSV06 SAVING    CSUB-ELASTIC  IN MODEL EX-GWF-CSUB-P04  PACKAGE EX-GWF-CSUB-P04 CONNECTED TO MODEL EX-GWF-CSUB-P04  PACKAGE CSUB             ON UNIT   1020 AT TIME STEP      5, STRESS PERIOD      2
 UBDSV06 SAVING  CSUB-INELASTIC  IN MODEL EX-GWF-CSUB-P04  PACKAGE EX-GWF-CSUB-P04 CONNECTED TO MODEL EX-GWF-CSUB-P04  PACKAGE CSUB             ON UNIT   1020 AT TIME STEP      5, STRESS PERIOD      2
 UBDSV1 SAVING  CSUB-WATERCOMP  ON UNIT   1020 AT TIME STEP      5, STRESS PERIOD      2
 UBDSV06 SAVING              WEL IN MODEL EX-GWF-CSUB-P04  PACKAGE EX-GWF-CSUB-P04 CONNECTED TO MODEL EX-GWF-CSUB-P04  PACKAGE WEL_0            ON UNIT   1020 AT TIME STEP      5, STRESS PERIOD      2
 UBDSV06 SAVING              RCH IN MODEL EX-GWF-CSUB-P04  PACKAGE EX-GWF-CSUB-P04 CONNECTED TO MODEL EX-GWF-CSUB-P04  PACKAGE RCH_0            ON UNIT   1020 AT TIME STEP      5, STRESS PERIOD      2
 UBDSV06 SAVING              CHD IN MODEL EX-GWF-CSUB-P04  PACKAGE EX-GWF-CSUB-P04 CONNECTED TO MODEL EX-GWF-CSUB-P04  PACKAGE CHD_0            ON UNIT   1020 AT TIME STEP      5, STRESS PERIOD      2

 HEAD WILL BE SAVED ON UNIT 1021 AT END OF TIME STEP    5, STRESS PERIOD    2


  VOLUME BUDGET FOR ENTIRE MODEL AT END OF TIME STEP    5, STRESS PERIOD   2
  ---------------------------------------------------------------------------------------------------

     CUMULATIVE VOLUME      L**3       RATES FOR THIS TIME STEP      L**3/T          PACKAGE NAME    
     ------------------                 ------------------------                     ----------------

           IN:                                      IN:
           ---                                      ---
              STO-SS =           0.0000                STO-SS =           0.0000     STORAGE                          
              STO-SY =   258732548.0908                STO-SY =      141802.9568     STORAGE                          
      CSUB-CGELASTIC =      735014.8530        CSUB-CGELASTIC =         326.8665     CSUB                             
        CSUB-ELASTIC =     2178574.1609          CSUB-ELASTIC =        1047.3215     CSUB                             
      CSUB-INELASTIC =      610548.5982        CSUB-INELASTIC =         405.3697     CSUB                             
      CSUB-WATERCOMP =     1079357.3071        CSUB-WATERCOMP =         510.4945     CSUB                             
                 WEL =           0.0000                   WEL =           0.0000     WEL_0                            
                 RCH =    72319500.0000                   RCH =       39600.0000     RCH_0                            
                 CHD =           0.0000                   CHD =           0.0000     CHD_0                            

            TOTAL IN =   335655543.0100              TOTAL IN =      183693.0090

          OUT:                                     OUT:
          ----                                     ----
              STO-SS =           0.0000                STO-SS =           0.0000     STORAGE                          
              STO-SY =           0.0000                STO-SY =           0.0000     STORAGE                          
      CSUB-CGELASTIC =      556102.3829        CSUB-CGELASTIC =         307.3298     CSUB                             
        CSUB-ELASTIC =           0.0000          CSUB-ELASTIC =           0.0000     CSUB                             
      CSUB-INELASTIC =           0.0000        CSUB-INELASTIC =           0.0000     CSUB                             
      CSUB-WATERCOMP =           0.0000        CSUB-WATERCOMP =           0.0000     CSUB                             
                 WEL =   262980000.0000                   WEL =      144000.0000     WEL_0                            
                 RCH =           0.0000                   RCH =           0.0000     RCH_0                            
                 CHD =    72119440.6275                   CHD =       39385.6792     CHD_0                            

           TOTAL OUT =   335655543.0104             TOTAL OUT =      183693.0090

            IN - OUT =      -4.2236E-04              IN - OUT =       7.7940E-08

 PERCENT DISCREPANCY =          -0.00     PERCENT DISCREPANCY =           0.00




         TIME SUMMARY AT END OF TIME STEP    5 IN STRESS PERIOD    2
                    SECONDS     MINUTES      HOURS       DAYS        YEARS
                    -----------------------------------------------------------
   TIME STEP LENGTH 3.15576E+07 5.25960E+05  8766.0      365.25      1.0000    
 STRESS PERIOD TIME 1.57788E+08 2.62980E+06  43830.      1826.2      5.0000    
         TOTAL TIME 1.57788E+08 2.62980E+06  43830.      1826.2      5.0000    


end timestep


start timestep kper="2" kstp="6" mode="normal"

 UBDSV1 SAVING           STO-SS ON UNIT   1020 AT TIME STEP      6, STRESS PERIOD      2
 UBDSV1 SAVING           STO-SY ON UNIT   1020 AT TIME STEP      6, STRESS PERIOD      2
 UBDSV1 SAVING     FLOW-JA-FACE ON UNIT   1020 AT TIME STEP      6, STRESS PERIOD      2
 UBDSV06 SAVING       DATA-SPDIS IN MODEL EX-GWF-CSUB-P04  PACKAGE NPF             CONNECTED TO MODEL EX-GWF-CSUB-P04  PACKAGE NPF              ON UNIT   1020 AT TIME STEP      6, STRESS PERIOD      2
 UBDSV1 SAVING  CSUB-CGELASTIC  ON UNIT   1020 AT TIME STEP      6, STRESS PERIOD      2
 UBDSV06 SAVING    CSUB-ELASTIC  IN MODEL EX-GWF-CSUB-P04  PACKAGE EX-GWF-CSUB-P04 CONNECTED TO MODEL EX-GWF-CSUB-P04  PACKAGE CSUB             ON UNIT   1020 AT TIME STEP      6, STRESS PERIOD      2
 UBDSV06 SAVING  CSUB-INELASTIC  IN MODEL EX-GWF-CSUB-P04  PACKAGE EX-GWF-CSUB-P04 CONNECTED TO MODEL EX-GWF-CSUB-P04  PACKAGE CSUB             ON UNIT   1020 AT TIME STEP      6, STRESS PERIOD      2
 UBDSV1 SAVING  CSUB-WATERCOMP  ON UNIT   1020 AT TIME STEP      6, STRESS PERIOD      2
 UBDSV06 SAVING              WEL IN MODEL EX-GWF-CSUB-P04  PACKAGE EX-GWF-CSUB-P04 CONNECTED TO MODEL EX-GWF-CSUB-P04  PACKAGE WEL_0            ON UNIT   1020 AT TIME STEP      6, STRESS PERIOD      2
 UBDSV06 SAVING              RCH IN MODEL EX-GWF-CSUB-P04  PACKAGE EX-GWF-CSUB-P04 CONNECTED TO MODEL EX-GWF-CSUB-P04  PACKAGE RCH_0            ON UNIT   1020 AT TIME STEP      6, STRESS PERIOD      2
 UBDSV06 SAVING              CHD IN MODEL EX-GWF-CSUB-P04  PACKAGE EX-GWF-CSUB-P04 CONNECTED TO MODEL EX-GWF-CSUB-P04  PACKAGE CHD_0            ON UNIT   1020 AT TIME STEP      6, STRESS PERIOD      2

 HEAD WILL BE SAVED ON UNIT 1021 AT END OF TIME STEP    6, STRESS PERIOD    2


  VOLUME BUDGET FOR ENTIRE MODEL AT END OF TIME STEP    6, STRESS PERIOD   2
  ---------------------------------------------------------------------------------------------------

     CUMULATIVE VOLUME      L**3       RATES FOR THIS TIME STEP      L**3/T          PACKAGE NAME    
     ------------------                 ------------------------                     ----------------

           IN:                                      IN:
           ---                                      ---
              STO-SS =           0.0000                STO-SS =           0.0000     STORAGE                          
              STO-SY =   310496190.0594                STO-SY =      141721.1279     STORAGE                          
      CSUB-CGELASTIC =      854332.7262        CSUB-CGELASTIC =         326.6745     CSUB                             
        CSUB-ELASTIC =     2560195.1601          CSUB-ELASTIC =        1044.8214     CSUB                             
      CSUB-INELASTIC =      761479.2359        CSUB-INELASTIC =         413.2256     CSUB                             
      CSUB-WATERCOMP =     1265672.8127        CSUB-WATERCOMP =         510.1041     CSUB                             
                 WEL =           0.0000                   WEL =           0.0000     WEL_0                            
                 RCH =    86783400.0000                   RCH =       39600.0000     RCH_0                            
                 CHD =           0.0000                   CHD =           0.0000     CHD_0                            

            TOTAL IN =   402721269.9944              TOTAL IN =      183615.9534

          OUT:                                     OUT:
          ----                                     ----
              STO-SS =           0.0000                STO-SS =           0.0000     STORAGE                          
              STO-SY =           0.0000                STO-SY =           0.0000     STORAGE                          
      CSUB-CGELASTIC =      668433.8820        CSUB-CGELASTIC =         307.5469     CSUB                             
        CSUB-ELASTIC =           0.0000          CSUB-ELASTIC =           0.0000     CSUB                             
      CSUB-INELASTIC =           0.0000        CSUB-INELASTIC =           0.0000     CSUB                             
      CSUB-WATERCOMP =           0.0000        CSUB-WATERCOMP =           0.0000     CSUB                             
                 WEL =   315576000.0000                   WEL =      144000.0000     WEL_0                            
                 RCH =           0.0000                   RCH =           0.0000     RCH_0                            
                 CHD =    86476836.1128                   CHD =       39308.4065     CHD_0                            

           TOTAL OUT =   402721269.9948             TOTAL OUT =      183615.9534

            IN - OUT =      -3.8910E-04              IN - OUT =       9.1095E-08

 PERCENT DISCREPANCY =          -0.00     PERCENT DISCREPANCY =           0.00




         TIME SUMMARY AT END OF TIME STEP    6 IN STRESS PERIOD    2
                    SECONDS     MINUTES      HOURS       DAYS        YEARS
                    -----------------------------------------------------------
   TIME STEP LENGTH 3.15576E+07 5.25960E+05  8766.0      365.25      1.0000    
 STRESS PERIOD TIME 1.89346E+08 3.15576E+06  52596.      2191.5      6.0000    
         TOTAL TIME 1.89346E+08 3.15576E+06  52596.      2191.5      6.0000    


end timestep


start timestep kper="2" kstp="7" mode="normal"

 UBDSV1 SAVING           STO-SS ON UNIT   1020 AT TIME STEP      7, STRESS PERIOD      2
 UBDSV1 SAVING           STO-SY ON UNIT   1020 AT TIME STEP      7, STRESS PERIOD      2
 UBDSV1 SAVING     FLOW-JA-FACE ON UNIT   1020 AT TIME STEP      7, STRESS PERIOD      2
 UBDSV06 SAVING       DATA-SPDIS IN MODEL EX-GWF-CSUB-P04  PACKAGE NPF             CONNECTED TO MODEL EX-GWF-CSUB-P04  PACKAGE NPF              ON UNIT   1020 AT TIME STEP      7, STRESS PERIOD      2
 UBDSV1 SAVING  CSUB-CGELASTIC  ON UNIT   1020 AT TIME STEP      7, STRESS PERIOD      2
 UBDSV06 SAVING    CSUB-ELASTIC  IN MODEL EX-GWF-CSUB-P04  PACKAGE EX-GWF-CSUB-P04 CONNECTED TO MODEL EX-GWF-CSUB-P04  PACKAGE CSUB             ON UNIT   1020 AT TIME STEP      7, STRESS PERIOD      2
 UBDSV06 SAVING  CSUB-INELASTIC  IN MODEL EX-GWF-CSUB-P04  PACKAGE EX-GWF-CSUB-P04 CONNECTED TO MODEL EX-GWF-CSUB-P04  PACKAGE CSUB             ON UNIT   1020 AT TIME STEP      7, STRESS PERIOD      2
 UBDSV1 SAVING  CSUB-WATERCOMP  ON UNIT   1020 AT TIME STEP      7, STRESS PERIOD      2
 UBDSV06 SAVING              WEL IN MODEL EX-GWF-CSUB-P04  PACKAGE EX-GWF-CSUB-P04 CONNECTED TO MODEL EX-GWF-CSUB-P04  PACKAGE WEL_0            ON UNIT   1020 AT TIME STEP      7, STRESS PERIOD      2
 UBDSV06 SAVING              RCH IN MODEL EX-GWF-CSUB-P04  PACKAGE EX-GWF-CSUB-P04 CONNECTED TO MODEL EX-GWF-CSUB-P04  PACKAGE RCH_0            ON UNIT   1020 AT TIME STEP      7, STRESS PERIOD      2
 UBDSV06 SAVING              CHD IN MODEL EX-GWF-CSUB-P04  PACKAGE EX-GWF-CSUB-P04 CONNECTED TO MODEL EX-GWF-CSUB-P04  PACKAGE CHD_0            ON UNIT   1020 AT TIME STEP      7, STRESS PERIOD      2

 HEAD WILL BE SAVED ON UNIT 1021 AT END OF TIME STEP    7, STRESS PERIOD    2


  VOLUME BUDGET FOR ENTIRE MODEL AT END OF TIME STEP    7, STRESS PERIOD   2
  ---------------------------------------------------------------------------------------------------

     CUMULATIVE VOLUME      L**3       RATES FOR THIS TIME STEP      L**3/T          PACKAGE NAME    
     ------------------                 ------------------------                     ----------------

           IN:                                      IN:
           ---                                      ---
              STO-SS =           0.0000                STO-SS =           0.0000     STORAGE                          
              STO-SY =   362250649.0697                STO-SY =      141695.9863     STORAGE                          
      CSUB-CGELASTIC =      973581.4546        CSUB-CGELASTIC =         326.4852     CSUB                             
        CSUB-ELASTIC =     2941937.2736          CSUB-ELASTIC =        1045.1529     CSUB                             
      CSUB-INELASTIC =      888881.6147        CSUB-INELASTIC =         348.8087     CSUB                             
      CSUB-WATERCOMP =     1451854.9606        CSUB-WATERCOMP =         509.7389     CSUB                             
                 WEL =           0.0000                   WEL =           0.0000     WEL_0                            
                 RCH =   101247300.0000                   RCH =       39600.0000     RCH_0                            
                 CHD =           0.0000                   CHD =           0.0000     CHD_0                            

            TOTAL IN =   469754204.3732              TOTAL IN =      183526.1722

          OUT:                                     OUT:
          ----                                     ----
              STO-SS =           0.0000                STO-SS =           0.0000     STORAGE                          
              STO-SY =           0.0000                STO-SY =           0.0000     STORAGE                          
      CSUB-CGELASTIC =      780875.9427        CSUB-CGELASTIC =         307.8496     CSUB                             
        CSUB-ELASTIC =           0.0000          CSUB-ELASTIC =           0.0000     CSUB                             
      CSUB-INELASTIC =           0.0000        CSUB-INELASTIC =           0.0000     CSUB                             
      CSUB-WATERCOMP =           0.0000        CSUB-WATERCOMP =           0.0000     CSUB                             
                 WEL =   368172000.0000                   WEL =      144000.0000     WEL_0                            
                 RCH =           0.0000                   RCH =           0.0000     RCH_0                            
                 CHD =   100801328.4308                   CHD =       39218.3226     CHD_0                            

           TOTAL OUT =   469754204.3735             TOTAL OUT =      183526.1722

            IN - OUT =      -3.3414E-04              IN - OUT =       1.5035E-07

 PERCENT DISCREPANCY =          -0.00     PERCENT DISCREPANCY =           0.00




         TIME SUMMARY AT END OF TIME STEP    7 IN STRESS PERIOD    2
                    SECONDS     MINUTES      HOURS       DAYS        YEARS
                    -----------------------------------------------------------
   TIME STEP LENGTH 3.15576E+07 5.25960E+05  8766.0      365.25      1.0000    
 STRESS PERIOD TIME 2.20903E+08 3.68172E+06  61362.      2556.8      7.0000    
         TOTAL TIME 2.20903E+08 3.68172E+06  61362.      2556.8      7.0000    


end timestep


start timestep kper="2" kstp="8" mode="normal"

 UBDSV1 SAVING           STO-SS ON UNIT   1020 AT TIME STEP      8, STRESS PERIOD      2
 UBDSV1 SAVING           STO-SY ON UNIT   1020 AT TIME STEP      8, STRESS PERIOD      2
 UBDSV1 SAVING     FLOW-JA-FACE ON UNIT   1020 AT TIME STEP      8, STRESS PERIOD      2
 UBDSV06 SAVING       DATA-SPDIS IN MODEL EX-GWF-CSUB-P04  PACKAGE NPF             CONNECTED TO MODEL EX-GWF-CSUB-P04  PACKAGE NPF              ON UNIT   1020 AT TIME STEP      8, STRESS PERIOD      2
 UBDSV1 SAVING  CSUB-CGELASTIC  ON UNIT   1020 AT TIME STEP      8, STRESS PERIOD      2
 UBDSV06 SAVING    CSUB-ELASTIC  IN MODEL EX-GWF-CSUB-P04  PACKAGE EX-GWF-CSUB-P04 CONNECTED TO MODEL EX-GWF-CSUB-P04  PACKAGE CSUB             ON UNIT   1020 AT TIME STEP      8, STRESS PERIOD      2
 UBDSV06 SAVING  CSUB-INELASTIC  IN MODEL EX-GWF-CSUB-P04  PACKAGE EX-GWF-CSUB-P04 CONNECTED TO MODEL EX-GWF-CSUB-P04  PACKAGE CSUB             ON UNIT   1020 AT TIME STEP      8, STRESS PERIOD      2
 UBDSV1 SAVING  CSUB-WATERCOMP  ON UNIT   1020 AT TIME STEP      8, STRESS PERIOD      2
 UBDSV06 SAVING              WEL IN MODEL EX-GWF-CSUB-P04  PACKAGE EX-GWF-CSUB-P04 CONNECTED TO MODEL EX-GWF-CSUB-P04  PACKAGE WEL_0            ON UNIT   1020 AT TIME STEP      8, STRESS PERIOD      2
 UBDSV06 SAVING              RCH IN MODEL EX-GWF-CSUB-P04  PACKAGE EX-GWF-CSUB-P04 CONNECTED TO MODEL EX-GWF-CSUB-P04  PACKAGE RCH_0            ON UNIT   1020 AT TIME STEP      8, STRESS PERIOD      2
 UBDSV06 SAVING              CHD IN MODEL EX-GWF-CSUB-P04  PACKAGE EX-GWF-CSUB-P04 CONNECTED TO MODEL EX-GWF-CSUB-P04  PACKAGE CHD_0            ON UNIT   1020 AT TIME STEP      8, STRESS PERIOD      2

 HEAD WILL BE SAVED ON UNIT 1021 AT END OF TIME STEP    8, STRESS PERIOD    2


  VOLUME BUDGET FOR ENTIRE MODEL AT END OF TIME STEP    8, STRESS PERIOD   2
  ---------------------------------------------------------------------------------------------------

     CUMULATIVE VOLUME      L**3       RATES FOR THIS TIME STEP      L**3/T          PACKAGE NAME    
     ------------------                 ------------------------                     ----------------

           IN:                                      IN:
           ---                                      ---
              STO-SS =           0.0000                STO-SS =           0.0000     STORAGE                          
              STO-SY =   413984790.2692                STO-SY =      141640.3592     STORAGE                          
      CSUB-CGELASTIC =     1092731.2552        CSUB-CGELASTIC =         326.2144     CSUB                             
        CSUB-ELASTIC =     3323421.2802          CSUB-ELASTIC =        1044.4463     CSUB                             
      CSUB-INELASTIC =      999693.7343        CSUB-INELASTIC =         303.3870     CSUB                             
      CSUB-WATERCOMP =     1637864.1652        CSUB-WATERCOMP =         509.2654     CSUB                             
                 WEL =           0.0000                   WEL =           0.0000     WEL_0                            
                 RCH =   115711200.0000                   RCH =       39600.0000     RCH_0                            
                 CHD =           0.0000                   CHD =           0.0000     CHD_0                            

            TOTAL IN =   536749700.7041              TOTAL IN =      183423.6724

          OUT:                                     OUT:
          ----                                     ----
              STO-SS =           0.0000                STO-SS =           0.0000     STORAGE                          
              STO-SY =           0.0000                STO-SY =           0.0000     STORAGE                          
      CSUB-CGELASTIC =      893391.7165        CSUB-CGELASTIC =         308.0514     CSUB                             
        CSUB-ELASTIC =           0.0000          CSUB-ELASTIC =           0.0000     CSUB                             
      CSUB-INELASTIC =           0.0000        CSUB-INELASTIC =           0.0000     CSUB                             
      CSUB-WATERCOMP =           0.0000        CSUB-WATERCOMP =           0.0000     CSUB                             
                 WEL =   420768000.0000                   WEL =      144000.0000     WEL_0                            
                 RCH =           0.0000                   RCH =           0.0000     RCH_0                            
                 CHD =   115088308.9879                   CHD =       39115.6210     CHD_0                            

           TOTAL OUT =   536749700.7044             TOTAL OUT =      183423.6724

            IN - OUT =      -3.0142E-04              IN - OUT =       8.9552E-08

 PERCENT DISCREPANCY =          -0.00     PERCENT DISCREPANCY =           0.00




         TIME SUMMARY AT END OF TIME STEP    8 IN STRESS PERIOD    2
                    SECONDS     MINUTES      HOURS       DAYS        YEARS
                    -----------------------------------------------------------
   TIME STEP LENGTH 3.15576E+07 5.25960E+05  8766.0      365.25      1.0000    
 STRESS PERIOD TIME 2.52461E+08 4.20768E+06  70128.      2922.0      8.0000    
         TOTAL TIME 2.52461E+08 4.20768E+06  70128.      2922.0      8.0000    


end timestep


start timestep kper="2" kstp="9" mode="normal"

 UBDSV1 SAVING           STO-SS ON UNIT   1020 AT TIME STEP      9, STRESS PERIOD      2
 UBDSV1 SAVING           STO-SY ON UNIT   1020 AT TIME STEP      9, STRESS PERIOD      2
 UBDSV1 SAVING     FLOW-JA-FACE ON UNIT   1020 AT TIME STEP      9, STRESS PERIOD      2
 UBDSV06 SAVING       DATA-SPDIS IN MODEL EX-GWF-CSUB-P04  PACKAGE NPF             CONNECTED TO MODEL EX-GWF-CSUB-P04  PACKAGE NPF              ON UNIT   1020 AT TIME STEP      9, STRESS PERIOD      2
 UBDSV1 SAVING  CSUB-CGELASTIC  ON UNIT   1020 AT TIME STEP      9, STRESS PERIOD      2
 UBDSV06 SAVING    CSUB-ELASTIC  IN MODEL EX-GWF-CSUB-P04  PACKAGE EX-GWF-CSUB-P04 CONNECTED TO MODEL EX-GWF-CSUB-P04  PACKAGE CSUB             ON UNIT   1020 AT TIME STEP      9, STRESS PERIOD      2
 UBDSV06 SAVING  CSUB-INELASTIC  IN MODEL EX-GWF-CSUB-P04  PACKAGE EX-GWF-CSUB-P04 CONNECTED TO MODEL EX-GWF-CSUB-P04  PACKAGE CSUB             ON UNIT   1020 AT TIME STEP      9, STRESS PERIOD      2
 UBDSV1 SAVING  CSUB-WATERCOMP  ON UNIT   1020 AT TIME STEP      9, STRESS PERIOD      2
 UBDSV06 SAVING              WEL IN MODEL EX-GWF-CSUB-P04  PACKAGE EX-GWF-CSUB-P04 CONNECTED TO MODEL EX-GWF-CSUB-P04  PACKAGE WEL_0            ON UNIT   1020 AT TIME STEP      9, STRESS PERIOD      2
 UBDSV06 SAVING              RCH IN MODEL EX-GWF-CSUB-P04  PACKAGE EX-GWF-CSUB-P04 CONNECTED TO MODEL EX-GWF-CSUB-P04  PACKAGE RCH_0            ON UNIT   1020 AT TIME STEP      9, STRESS PERIOD      2
 UBDSV06 SAVING              CHD IN MODEL EX-GWF-CSUB-P04  PACKAGE EX-GWF-CSUB-P04 CONNECTED TO MODEL EX-GWF-CSUB-P04  PACKAGE CHD_0            ON UNIT   1020 AT TIME STEP      9, STRESS PERIOD      2

 HEAD WILL BE SAVED ON UNIT 1021 AT END OF TIME STEP    9, STRESS PERIOD    2


  VOLUME BUDGET FOR ENTIRE MODEL AT END OF TIME STEP    9, STRESS PERIOD   2
  ---------------------------------------------------------------------------------------------------

     CUMULATIVE VOLUME      L**3       RATES FOR THIS TIME STEP      L**3/T          PACKAGE NAME    
     ------------------                 ------------------------                     ----------------

           IN:                                      IN:
           ---                                      ---
              STO-SS =           0.0000                STO-SS =           0.0000     STORAGE                          
              STO-SY =   465690021.4406                STO-SY =      141561.2079     STORAGE                          
      CSUB-CGELASTIC =     1211762.6834        CSUB-CGELASTIC =         325.8903     CSUB                             
        CSUB-ELASTIC =     3704406.2284          CSUB-ELASTIC =        1043.0799     CSUB                             
      CSUB-INELASTIC =     1098291.7801        CSUB-INELASTIC =         269.9467     CSUB                             
      CSUB-WATERCOMP =     1823673.2627        CSUB-WATERCOMP =         508.7176     CSUB                             
                 WEL =           0.0000                   WEL =           0.0000     WEL_0                            
                 RCH =   130175100.0000                   RCH =       39600.0000     RCH_0                            
                 CHD =           0.0000                   CHD =           0.0000     CHD_0                            

            TOTAL IN =   603703255.3952              TOTAL IN =      183308.8424

          OUT:                                     OUT:
          ----                                     ----
              STO-SS =           0.0000                STO-SS =           0.0000     STORAGE                          
              STO-SY =           0.0000                STO-SY =           0.0000     STORAGE                          
      CSUB-CGELASTIC =     1005953.7423        CSUB-CGELASTIC =         308.1780     CSUB                             
        CSUB-ELASTIC =           0.0000          CSUB-ELASTIC =           0.0000     CSUB                             
      CSUB-INELASTIC =           0.0000        CSUB-INELASTIC =           0.0000     CSUB                             
      CSUB-WATERCOMP =           0.0000        CSUB-WATERCOMP =           0.0000     CSUB                             
                 WEL =   473364000.0000                   WEL =      144000.0000     WEL_0                            
                 RCH =           0.0000                   RCH =           0.0000     RCH_0                            
                 CHD =   129333301.6532                   CHD =       39000.6644     CHD_0                            

           TOTAL OUT =   603703255.3955             TOTAL OUT =      183308.8424

            IN - OUT =      -2.9635E-04              IN - OUT =       1.3853E-08

 PERCENT DISCREPANCY =          -0.00     PERCENT DISCREPANCY =           0.00




         TIME SUMMARY AT END OF TIME STEP    9 IN STRESS PERIOD    2
                    SECONDS     MINUTES      HOURS       DAYS        YEARS
                    -----------------------------------------------------------
   TIME STEP LENGTH 3.15576E+07 5.25960E+05  8766.0      365.25      1.0000    
 STRESS PERIOD TIME 2.84018E+08 4.73364E+06  78894.      3287.2      9.0000    
         TOTAL TIME 2.84018E+08 4.73364E+06  78894.      3287.2      9.0000    


end timestep


start timestep kper="2" kstp="10" mode="normal"

 UBDSV1 SAVING           STO-SS ON UNIT   1020 AT TIME STEP     10, STRESS PERIOD      2
 UBDSV1 SAVING           STO-SY ON UNIT   1020 AT TIME STEP     10, STRESS PERIOD      2
 UBDSV1 SAVING     FLOW-JA-FACE ON UNIT   1020 AT TIME STEP     10, STRESS PERIOD      2
 UBDSV06 SAVING       DATA-SPDIS IN MODEL EX-GWF-CSUB-P04  PACKAGE NPF             CONNECTED TO MODEL EX-GWF-CSUB-P04  PACKAGE NPF              ON UNIT   1020 AT TIME STEP     10, STRESS PERIOD      2
 UBDSV1 SAVING  CSUB-CGELASTIC  ON UNIT   1020 AT TIME STEP     10, STRESS PERIOD      2
 UBDSV06 SAVING    CSUB-ELASTIC  IN MODEL EX-GWF-CSUB-P04  PACKAGE EX-GWF-CSUB-P04 CONNECTED TO MODEL EX-GWF-CSUB-P04  PACKAGE CSUB             ON UNIT   1020 AT TIME STEP     10, STRESS PERIOD      2
 UBDSV06 SAVING  CSUB-INELASTIC  IN MODEL EX-GWF-CSUB-P04  PACKAGE EX-GWF-CSUB-P04 CONNECTED TO MODEL EX-GWF-CSUB-P04  PACKAGE CSUB             ON UNIT   1020 AT TIME STEP     10, STRESS PERIOD      2
 UBDSV1 SAVING  CSUB-WATERCOMP  ON UNIT   1020 AT TIME STEP     10, STRESS PERIOD      2
 UBDSV06 SAVING              WEL IN MODEL EX-GWF-CSUB-P04  PACKAGE EX-GWF-CSUB-P04 CONNECTED TO MODEL EX-GWF-CSUB-P04  PACKAGE WEL_0            ON UNIT   1020 AT TIME STEP     10, STRESS PERIOD      2
 UBDSV06 SAVING              RCH IN MODEL EX-GWF-CSUB-P04  PACKAGE EX-GWF-CSUB-P04 CONNECTED TO MODEL EX-GWF-CSUB-P04  PACKAGE RCH_0            ON UNIT   1020 AT TIME STEP     10, STRESS PERIOD      2
 UBDSV06 SAVING              CHD IN MODEL EX-GWF-CSUB-P04  PACKAGE EX-GWF-CSUB-P04 CONNECTED TO MODEL EX-GWF-CSUB-P04  PACKAGE CHD_0            ON UNIT   1020 AT TIME STEP     10, STRESS PERIOD      2

 HEAD WILL BE SAVED ON UNIT 1021 AT END OF TIME STEP   10, STRESS PERIOD    2


  VOLUME BUDGET FOR ENTIRE MODEL AT END OF TIME STEP   10, STRESS PERIOD   2
  ---------------------------------------------------------------------------------------------------

     CUMULATIVE VOLUME      L**3       RATES FOR THIS TIME STEP      L**3/T          PACKAGE NAME    
     ------------------                 ------------------------                     ----------------

           IN:                                      IN:
           ---                                      ---
              STO-SS =           0.0000                STO-SS =           0.0000     STORAGE                          
              STO-SY =   517359365.9766                STO-SY =      141462.9556     STORAGE                          
      CSUB-CGELASTIC =     1330660.2806        CSUB-CGELASTIC =         325.5239     CSUB                             
        CSUB-ELASTIC =     4084724.7519          CSUB-ELASTIC =        1041.2554     CSUB                             
      CSUB-INELASTIC =     1187538.2718        CSUB-INELASTIC =         244.3436     CSUB                             
      CSUB-WATERCOMP =     2009260.2157        CSUB-WATERCOMP =         508.1094     CSUB                             
                 WEL =           0.0000                   WEL =           0.0000     WEL_0                            
                 RCH =   144639000.0000                   RCH =       39600.0000     RCH_0                            
                 CHD =           0.0000                   CHD =           0.0000     CHD_0                            

            TOTAL IN =   670610549.4965              TOTAL IN =      183182.1878

          OUT:                                     OUT:
          ----                                     ----
              STO-SS =           0.0000                STO-SS =           0.0000     STORAGE                          
              STO-SY =           0.0000                STO-SY =           0.0000     STORAGE                          
      CSUB-CGELASTIC =     1118540.7785        CSUB-CGELASTIC =         308.2465     CSUB                             
        CSUB-ELASTIC =           0.0000          CSUB-ELASTIC =           0.0000     CSUB                             
      CSUB-INELASTIC =           0.0000        CSUB-INELASTIC =           0.0000     CSUB                             
      CSUB-WATERCOMP =           0.0000        CSUB-WATERCOMP =           0.0000     CSUB                             
                 WEL =   525960000.0000                   WEL =      144000.0000     WEL_0                            
                 RCH =           0.0000                   RCH =           0.0000     RCH_0                            
                 CHD =   143532008.7183                   CHD =       38873.9413     CHD_0                            

           TOTAL OUT =   670610549.4968             TOTAL OUT =      183182.1878

            IN - OUT =      -2.7716E-04              IN - OUT =       5.2882E-08

 PERCENT DISCREPANCY =          -0.00     PERCENT DISCREPANCY =           0.00




         TIME SUMMARY AT END OF TIME STEP   10 IN STRESS PERIOD    2
                    SECONDS     MINUTES      HOURS       DAYS        YEARS
                    -----------------------------------------------------------
   TIME STEP LENGTH 3.15576E+07 5.25960E+05  8766.0      365.25      1.0000    
 STRESS PERIOD TIME 3.15576E+08 5.25960E+06  87660.      3652.5      10.000    
         TOTAL TIME 3.15576E+08 5.25960E+06  87660.      3652.5      10.000    


end timestep


start timestep kper="2" kstp="11" mode="normal"

 UBDSV1 SAVING           STO-SS ON UNIT   1020 AT TIME STEP     11, STRESS PERIOD      2
 UBDSV1 SAVING           STO-SY ON UNIT   1020 AT TIME STEP     11, STRESS PERIOD      2
 UBDSV1 SAVING     FLOW-JA-FACE ON UNIT   1020 AT TIME STEP     11, STRESS PERIOD      2
 UBDSV06 SAVING       DATA-SPDIS IN MODEL EX-GWF-CSUB-P04  PACKAGE NPF             CONNECTED TO MODEL EX-GWF-CSUB-P04  PACKAGE NPF              ON UNIT   1020 AT TIME STEP     11, STRESS PERIOD      2
 UBDSV1 SAVING  CSUB-CGELASTIC  ON UNIT   1020 AT TIME STEP     11, STRESS PERIOD      2
 UBDSV06 SAVING    CSUB-ELASTIC  IN MODEL EX-GWF-CSUB-P04  PACKAGE EX-GWF-CSUB-P04 CONNECTED TO MODEL EX-GWF-CSUB-P04  PACKAGE CSUB             ON UNIT   1020 AT TIME STEP     11, STRESS PERIOD      2
 UBDSV06 SAVING  CSUB-INELASTIC  IN MODEL EX-GWF-CSUB-P04  PACKAGE EX-GWF-CSUB-P04 CONNECTED TO MODEL EX-GWF-CSUB-P04  PACKAGE CSUB             ON UNIT   1020 AT TIME STEP     11, STRESS PERIOD      2
 UBDSV1 SAVING  CSUB-WATERCOMP  ON UNIT   1020 AT TIME STEP     11, STRESS PERIOD      2
 UBDSV06 SAVING              WEL IN MODEL EX-GWF-CSUB-P04  PACKAGE EX-GWF-CSUB-P04 CONNECTED TO MODEL EX-GWF-CSUB-P04  PACKAGE WEL_0            ON UNIT   1020 AT TIME STEP     11, STRESS PERIOD      2
 UBDSV06 SAVING              RCH IN MODEL EX-GWF-CSUB-P04  PACKAGE EX-GWF-CSUB-P04 CONNECTED TO MODEL EX-GWF-CSUB-P04  PACKAGE RCH_0            ON UNIT   1020 AT TIME STEP     11, STRESS PERIOD      2
 UBDSV06 SAVING              CHD IN MODEL EX-GWF-CSUB-P04  PACKAGE EX-GWF-CSUB-P04 CONNECTED TO MODEL EX-GWF-CSUB-P04  PACKAGE CHD_0            ON UNIT   1020 AT TIME STEP     11, STRESS PERIOD      2

 HEAD WILL BE SAVED ON UNIT 1021 AT END OF TIME STEP   11, STRESS PERIOD    2


  VOLUME BUDGET FOR ENTIRE MODEL AT END OF TIME STEP   11, STRESS PERIOD   2
  ---------------------------------------------------------------------------------------------------

     CUMULATIVE VOLUME      L**3       RATES FOR THIS TIME STEP      L**3/T          PACKAGE NAME    
     ------------------                 ------------------------                     ----------------

           IN:                                      IN:
           ---                                      ---
              STO-SS =           0.0000                STO-SS =           0.0000     STORAGE                          
              STO-SY =   568986921.6586                STO-SY =      141348.5440     STORAGE                          
      CSUB-CGELASTIC =     1449410.9498        CSUB-CGELASTIC =         325.1216     CSUB                             
        CSUB-ELASTIC =     4464251.1347          CSUB-ELASTIC =        1039.0866     CSUB                             
      CSUB-INELASTIC =     1269389.1892        CSUB-INELASTIC =         224.0956     CSUB                             
      CSUB-WATERCOMP =     2194606.0226        CSUB-WATERCOMP =         507.4492     CSUB                             
                 WEL =           0.0000                   WEL =           0.0000     WEL_0                            
                 RCH =   159102900.0000                   RCH =       39600.0000     RCH_0                            
                 CHD =           0.0000                   CHD =           0.0000     CHD_0                            

            TOTAL IN =   737467478.9550              TOTAL IN =      183044.2969

          OUT:                                     OUT:
          ----                                     ----
              STO-SS =           0.0000                STO-SS =           0.0000     STORAGE                          
              STO-SY =           0.0000                STO-SY =           0.0000     STORAGE                          
      CSUB-CGELASTIC =     1231135.9547        CSUB-CGELASTIC =         308.2688     CSUB                             
        CSUB-ELASTIC =           0.0000          CSUB-ELASTIC =           0.0000     CSUB                             
      CSUB-INELASTIC =           0.0000        CSUB-INELASTIC =           0.0000     CSUB                             
      CSUB-WATERCOMP =           0.0000        CSUB-WATERCOMP =           0.0000     CSUB                             
                 WEL =   578556000.0000                   WEL =      144000.0000     WEL_0                            
                 RCH =           0.0000                   RCH =           0.0000     RCH_0                            
                 CHD =   157680343.0006                   CHD =       38736.0282     CHD_0                            

           TOTAL OUT =   737467478.9553             TOTAL OUT =      183044.2969

            IN - OUT =      -2.7668E-04              IN - OUT =       1.2515E-09

 PERCENT DISCREPANCY =          -0.00     PERCENT DISCREPANCY =           0.00




         TIME SUMMARY AT END OF TIME STEP   11 IN STRESS PERIOD    2
                    SECONDS     MINUTES      HOURS       DAYS        YEARS
                    -----------------------------------------------------------
   TIME STEP LENGTH 3.15576E+07 5.25960E+05  8766.0      365.25      1.0000    
 STRESS PERIOD TIME 3.47134E+08 5.78556E+06  96426.      4017.8      11.000    
         TOTAL TIME 3.47134E+08 5.78556E+06  96426.      4017.8      11.000    


end timestep


start timestep kper="2" kstp="12" mode="normal"

 UBDSV1 SAVING           STO-SS ON UNIT   1020 AT TIME STEP     12, STRESS PERIOD      2
 UBDSV1 SAVING           STO-SY ON UNIT   1020 AT TIME STEP     12, STRESS PERIOD      2
 UBDSV1 SAVING     FLOW-JA-FACE ON UNIT   1020 AT TIME STEP     12, STRESS PERIOD      2
 UBDSV06 SAVING       DATA-SPDIS IN MODEL EX-GWF-CSUB-P04  PACKAGE NPF             CONNECTED TO MODEL EX-GWF-CSUB-P04  PACKAGE NPF              ON UNIT   1020 AT TIME STEP     12, STRESS PERIOD      2
 UBDSV1 SAVING  CSUB-CGELASTIC  ON UNIT   1020 AT TIME STEP     12, STRESS PERIOD      2
 UBDSV06 SAVING    CSUB-ELASTIC  IN MODEL EX-GWF-CSUB-P04  PACKAGE EX-GWF-CSUB-P04 CONNECTED TO MODEL EX-GWF-CSUB-P04  PACKAGE CSUB             ON UNIT   1020 AT TIME STEP     12, STRESS PERIOD      2
 UBDSV06 SAVING  CSUB-INELASTIC  IN MODEL EX-GWF-CSUB-P04  PACKAGE EX-GWF-CSUB-P04 CONNECTED TO MODEL EX-GWF-CSUB-P04  PACKAGE CSUB             ON UNIT   1020 AT TIME STEP     12, STRESS PERIOD      2
 UBDSV1 SAVING  CSUB-WATERCOMP  ON UNIT   1020 AT TIME STEP     12, STRESS PERIOD      2
 UBDSV06 SAVING              WEL IN MODEL EX-GWF-CSUB-P04  PACKAGE EX-GWF-CSUB-P04 CONNECTED TO MODEL EX-GWF-CSUB-P04  PACKAGE WEL_0            ON UNIT   1020 AT TIME STEP     12, STRESS PERIOD      2
 UBDSV06 SAVING              RCH IN MODEL EX-GWF-CSUB-P04  PACKAGE EX-GWF-CSUB-P04 CONNECTED TO MODEL EX-GWF-CSUB-P04  PACKAGE RCH_0            ON UNIT   1020 AT TIME STEP     12, STRESS PERIOD      2
 UBDSV06 SAVING              CHD IN MODEL EX-GWF-CSUB-P04  PACKAGE EX-GWF-CSUB-P04 CONNECTED TO MODEL EX-GWF-CSUB-P04  PACKAGE CHD_0            ON UNIT   1020 AT TIME STEP     12, STRESS PERIOD      2

 HEAD WILL BE SAVED ON UNIT 1021 AT END OF TIME STEP   12, STRESS PERIOD    2


  VOLUME BUDGET FOR ENTIRE MODEL AT END OF TIME STEP   12, STRESS PERIOD   2
  ---------------------------------------------------------------------------------------------------

     CUMULATIVE VOLUME      L**3       RATES FOR THIS TIME STEP      L**3/T          PACKAGE NAME    
     ------------------                 ------------------------                     ----------------

           IN:                                      IN:
           ---                                      ---
              STO-SS =           0.0000                STO-SS =           0.0000     STORAGE                          
              STO-SY =   620567556.2725                STO-SY =      141220.0811     STORAGE                          
      CSUB-CGELASTIC =     1568003.2059        CSUB-CGELASTIC =         324.6879     CSUB                             
        CSUB-ELASTIC =     4842884.5385          CSUB-ELASTIC =        1036.6418     CSUB                             
      CSUB-INELASTIC =     1345236.2492        CSUB-INELASTIC =         207.6579     CSUB                             
      CSUB-WATERCOMP =     2379693.7369        CSUB-WATERCOMP =         506.7425     CSUB                             
                 WEL =           0.0000                   WEL =           0.0000     WEL_0                            
                 RCH =   173566800.0000                   RCH =       39600.0000     RCH_0                            
                 CHD =           0.0000                   CHD =           0.0000     CHD_0                            

            TOTAL IN =   804270174.0030              TOTAL IN =      182895.8112

          OUT:                                     OUT:
          ----                                     ----
              STO-SS =           0.0000                STO-SS =           0.0000     STORAGE                          
              STO-SY =           0.0000                STO-SY =           0.0000     STORAGE                          
      CSUB-CGELASTIC =     1343725.6270        CSUB-CGELASTIC =         308.2537     CSUB                             
        CSUB-ELASTIC =           0.0000          CSUB-ELASTIC =           0.0000     CSUB                             
      CSUB-INELASTIC =           0.0000        CSUB-INELASTIC =           0.0000     CSUB                             
      CSUB-WATERCOMP =           0.0000        CSUB-WATERCOMP =           0.0000     CSUB                             
                 WEL =   631152000.0000                   WEL =      144000.0000     WEL_0                            
                 RCH =           0.0000                   RCH =           0.0000     RCH_0                            
                 CHD =   171774448.3762                   CHD =       38587.5575     CHD_0                            

           TOTAL OUT =   804270174.0032             TOTAL OUT =      182895.8112

            IN - OUT =      -2.6119E-04              IN - OUT =       4.2113E-08

 PERCENT DISCREPANCY =          -0.00     PERCENT DISCREPANCY =           0.00




         TIME SUMMARY AT END OF TIME STEP   12 IN STRESS PERIOD    2
                    SECONDS     MINUTES      HOURS       DAYS        YEARS
                    -----------------------------------------------------------
   TIME STEP LENGTH 3.15576E+07 5.25960E+05  8766.0      365.25      1.0000    
 STRESS PERIOD TIME 3.78691E+08 6.31152E+06 1.05192E+05  4383.0      12.000    
         TOTAL TIME 3.78691E+08 6.31152E+06 1.05192E+05  4383.0      12.000    


end timestep


start timestep kper="2" kstp="13" mode="normal"

 UBDSV1 SAVING           STO-SS ON UNIT   1020 AT TIME STEP     13, STRESS PERIOD      2
 UBDSV1 SAVING           STO-SY ON UNIT   1020 AT TIME STEP     13, STRESS PERIOD      2
 UBDSV1 SAVING     FLOW-JA-FACE ON UNIT   1020 AT TIME STEP     13, STRESS PERIOD      2
 UBDSV06 SAVING       DATA-SPDIS IN MODEL EX-GWF-CSUB-P04  PACKAGE NPF             CONNECTED TO MODEL EX-GWF-CSUB-P04  PACKAGE NPF              ON UNIT   1020 AT TIME STEP     13, STRESS PERIOD      2
 UBDSV1 SAVING  CSUB-CGELASTIC  ON UNIT   1020 AT TIME STEP     13, STRESS PERIOD      2
 UBDSV06 SAVING    CSUB-ELASTIC  IN MODEL EX-GWF-CSUB-P04  PACKAGE EX-GWF-CSUB-P04 CONNECTED TO MODEL EX-GWF-CSUB-P04  PACKAGE CSUB             ON UNIT   1020 AT TIME STEP     13, STRESS PERIOD      2
 UBDSV06 SAVING  CSUB-INELASTIC  IN MODEL EX-GWF-CSUB-P04  PACKAGE EX-GWF-CSUB-P04 CONNECTED TO MODEL EX-GWF-CSUB-P04  PACKAGE CSUB             ON UNIT   1020 AT TIME STEP     13, STRESS PERIOD      2
 UBDSV1 SAVING  CSUB-WATERCOMP  ON UNIT   1020 AT TIME STEP     13, STRESS PERIOD      2
 UBDSV06 SAVING              WEL IN MODEL EX-GWF-CSUB-P04  PACKAGE EX-GWF-CSUB-P04 CONNECTED TO MODEL EX-GWF-CSUB-P04  PACKAGE WEL_0            ON UNIT   1020 AT TIME STEP     13, STRESS PERIOD      2
 UBDSV06 SAVING              RCH IN MODEL EX-GWF-CSUB-P04  PACKAGE EX-GWF-CSUB-P04 CONNECTED TO MODEL EX-GWF-CSUB-P04  PACKAGE RCH_0            ON UNIT   1020 AT TIME STEP     13, STRESS PERIOD      2
 UBDSV06 SAVING              CHD IN MODEL EX-GWF-CSUB-P04  PACKAGE EX-GWF-CSUB-P04 CONNECTED TO MODEL EX-GWF-CSUB-P04  PACKAGE CHD_0            ON UNIT   1020 AT TIME STEP     13, STRESS PERIOD      2

 HEAD WILL BE SAVED ON UNIT 1021 AT END OF TIME STEP   13, STRESS PERIOD    2


  VOLUME BUDGET FOR ENTIRE MODEL AT END OF TIME STEP   13, STRESS PERIOD   2
  ---------------------------------------------------------------------------------------------------

     CUMULATIVE VOLUME      L**3       RATES FOR THIS TIME STEP      L**3/T          PACKAGE NAME    
     ------------------                 ------------------------                     ----------------

           IN:                                      IN:
           ---                                      ---
              STO-SS =           0.0000                STO-SS =           0.0000     STORAGE                          
              STO-SY =   672096729.0215                STO-SY =      141079.1862     STORAGE                          
      CSUB-CGELASTIC =     1686426.7692        CSUB-CGELASTIC =         324.2260     CSUB                             
        CSUB-ELASTIC =     5220539.9888          CSUB-ELASTIC =        1033.9643     CSUB                             
      CSUB-INELASTIC =     1416105.8928        CSUB-INELASTIC =         194.0305     CSUB                             
      CSUB-WATERCOMP =     2564507.9507        CSUB-WATERCOMP =         505.9937     CSUB                             
                 WEL =           0.0000                   WEL =           0.0000     WEL_0                            
                 RCH =   188030700.0000                   RCH =       39600.0000     RCH_0                            
                 CHD =           0.0000                   CHD =           0.0000     CHD_0                            

            TOTAL IN =   871015009.6230              TOTAL IN =      182737.4007

          OUT:                                     OUT:
          ----                                     ----
              STO-SS =           0.0000                STO-SS =           0.0000     STORAGE                          
              STO-SY =           0.0000                STO-SY =           0.0000     STORAGE                          
      CSUB-CGELASTIC =     1456298.6100        CSUB-CGELASTIC =         308.2080     CSUB                             
        CSUB-ELASTIC =           0.0000          CSUB-ELASTIC =           0.0000     CSUB                             
      CSUB-INELASTIC =           0.0000        CSUB-INELASTIC =           0.0000     CSUB                             
      CSUB-WATERCOMP =           0.0000        CSUB-WATERCOMP =           0.0000     CSUB                             
                 WEL =   683748000.0000                   WEL =      144000.0000     WEL_0                            
                 RCH =           0.0000                   RCH =           0.0000     RCH_0                            
                 CHD =   185810711.0132                   CHD =       38429.1927     CHD_0                            

           TOTAL OUT =   871015009.6232             TOTAL OUT =      182737.4007

            IN - OUT =      -2.3854E-04              IN - OUT =       6.2224E-08

 PERCENT DISCREPANCY =          -0.00     PERCENT DISCREPANCY =           0.00




         TIME SUMMARY AT END OF TIME STEP   13 IN STRESS PERIOD    2
                    SECONDS     MINUTES      HOURS       DAYS        YEARS
                    -----------------------------------------------------------
   TIME STEP LENGTH 3.15576E+07 5.25960E+05  8766.0      365.25      1.0000    
 STRESS PERIOD TIME 4.10249E+08 6.83748E+06 1.13958E+05  4748.2      13.000    
         TOTAL TIME 4.10249E+08 6.83748E+06 1.13958E+05  4748.2      13.000    


end timestep


start timestep kper="2" kstp="14" mode="normal"

 UBDSV1 SAVING           STO-SS ON UNIT   1020 AT TIME STEP     14, STRESS PERIOD      2
 UBDSV1 SAVING           STO-SY ON UNIT   1020 AT TIME STEP     14, STRESS PERIOD      2
 UBDSV1 SAVING     FLOW-JA-FACE ON UNIT   1020 AT TIME STEP     14, STRESS PERIOD      2
 UBDSV06 SAVING       DATA-SPDIS IN MODEL EX-GWF-CSUB-P04  PACKAGE NPF             CONNECTED TO MODEL EX-GWF-CSUB-P04  PACKAGE NPF              ON UNIT   1020 AT TIME STEP     14, STRESS PERIOD      2
 UBDSV1 SAVING  CSUB-CGELASTIC  ON UNIT   1020 AT TIME STEP     14, STRESS PERIOD      2
 UBDSV06 SAVING    CSUB-ELASTIC  IN MODEL EX-GWF-CSUB-P04  PACKAGE EX-GWF-CSUB-P04 CONNECTED TO MODEL EX-GWF-CSUB-P04  PACKAGE CSUB             ON UNIT   1020 AT TIME STEP     14, STRESS PERIOD      2
 UBDSV06 SAVING  CSUB-INELASTIC  IN MODEL EX-GWF-CSUB-P04  PACKAGE EX-GWF-CSUB-P04 CONNECTED TO MODEL EX-GWF-CSUB-P04  PACKAGE CSUB             ON UNIT   1020 AT TIME STEP     14, STRESS PERIOD      2
 UBDSV1 SAVING  CSUB-WATERCOMP  ON UNIT   1020 AT TIME STEP     14, STRESS PERIOD      2
 UBDSV06 SAVING              WEL IN MODEL EX-GWF-CSUB-P04  PACKAGE EX-GWF-CSUB-P04 CONNECTED TO MODEL EX-GWF-CSUB-P04  PACKAGE WEL_0            ON UNIT   1020 AT TIME STEP     14, STRESS PERIOD      2
 UBDSV06 SAVING              RCH IN MODEL EX-GWF-CSUB-P04  PACKAGE EX-GWF-CSUB-P04 CONNECTED TO MODEL EX-GWF-CSUB-P04  PACKAGE RCH_0            ON UNIT   1020 AT TIME STEP     14, STRESS PERIOD      2
 UBDSV06 SAVING              CHD IN MODEL EX-GWF-CSUB-P04  PACKAGE EX-GWF-CSUB-P04 CONNECTED TO MODEL EX-GWF-CSUB-P04  PACKAGE CHD_0            ON UNIT   1020 AT TIME STEP     14, STRESS PERIOD      2

 HEAD WILL BE SAVED ON UNIT 1021 AT END OF TIME STEP   14, STRESS PERIOD    2


  VOLUME BUDGET FOR ENTIRE MODEL AT END OF TIME STEP   14, STRESS PERIOD   2
  ---------------------------------------------------------------------------------------------------

     CUMULATIVE VOLUME      L**3       RATES FOR THIS TIME STEP      L**3/T          PACKAGE NAME    
     ------------------                 ------------------------                     ----------------

           IN:                                      IN:
           ---                                      ---
              STO-SS =           0.0000                STO-SS =           0.0000     STORAGE                          
              STO-SY =   723570379.6290                STO-SY =      140927.1748     STORAGE                          
      CSUB-CGELASTIC =     1804672.3325        CSUB-CGELASTIC =         323.7387     CSUB                             
        CSUB-ELASTIC =     5597143.4506          CSUB-ELASTIC =        1031.0841     CSUB                             
      CSUB-INELASTIC =     1482779.0742        CSUB-INELASTIC =         182.5412     CSUB                             
      CSUB-WATERCOMP =     2749034.5150        CSUB-WATERCOMP =         505.2062     CSUB                             
                 WEL =           0.0000                   WEL =           0.0000     WEL_0                            
                 RCH =   202494600.0000                   RCH =       39600.0000     RCH_0                            
                 CHD =           0.0000                   CHD =           0.0000     CHD_0                            

            TOTAL IN =   937698609.0013              TOTAL IN =      182569.7450

          OUT:                                     OUT:
          ----                                     ----
              STO-SS =           0.0000                STO-SS =           0.0000     STORAGE                          
              STO-SY =           0.0000                STO-SY =           0.0000     STORAGE                          
      CSUB-CGELASTIC =     1568845.6315        CSUB-CGELASTIC =         308.1370     CSUB                             
        CSUB-ELASTIC =           0.0000          CSUB-ELASTIC =           0.0000     CSUB                             
      CSUB-INELASTIC =           0.0000        CSUB-INELASTIC =           0.0000     CSUB                             
      CSUB-WATERCOMP =           0.0000        CSUB-WATERCOMP =           0.0000     CSUB                             
                 WEL =   736344000.0000                   WEL =      144000.0000     WEL_0                            
                 RCH =           0.0000                   RCH =           0.0000     RCH_0                            
                 CHD =   199785763.3697                   CHD =       38261.6081     CHD_0                            

           TOTAL OUT =   937698609.0012             TOTAL OUT =      182569.7450

            IN - OUT =       5.1498E-05              IN - OUT =       7.9389E-07

 PERCENT DISCREPANCY =           0.00     PERCENT DISCREPANCY =           0.00




         TIME SUMMARY AT END OF TIME STEP   14 IN STRESS PERIOD    2
                    SECONDS     MINUTES      HOURS       DAYS        YEARS
                    -----------------------------------------------------------
   TIME STEP LENGTH 3.15576E+07 5.25960E+05  8766.0      365.25      1.0000    
 STRESS PERIOD TIME 4.41806E+08 7.36344E+06 1.22724E+05  5113.5      14.000    
         TOTAL TIME 4.41806E+08 7.36344E+06 1.22724E+05  5113.5      14.000    


end timestep


start timestep kper="2" kstp="15" mode="normal"

 UBDSV1 SAVING           STO-SS ON UNIT   1020 AT TIME STEP     15, STRESS PERIOD      2
 UBDSV1 SAVING           STO-SY ON UNIT   1020 AT TIME STEP     15, STRESS PERIOD      2
 UBDSV1 SAVING     FLOW-JA-FACE ON UNIT   1020 AT TIME STEP     15, STRESS PERIOD      2
 UBDSV06 SAVING       DATA-SPDIS IN MODEL EX-GWF-CSUB-P04  PACKAGE NPF             CONNECTED TO MODEL EX-GWF-CSUB-P04  PACKAGE NPF              ON UNIT   1020 AT TIME STEP     15, STRESS PERIOD      2
 UBDSV1 SAVING  CSUB-CGELASTIC  ON UNIT   1020 AT TIME STEP     15, STRESS PERIOD      2
 UBDSV06 SAVING    CSUB-ELASTIC  IN MODEL EX-GWF-CSUB-P04  PACKAGE EX-GWF-CSUB-P04 CONNECTED TO MODEL EX-GWF-CSUB-P04  PACKAGE CSUB             ON UNIT   1020 AT TIME STEP     15, STRESS PERIOD      2
 UBDSV06 SAVING  CSUB-INELASTIC  IN MODEL EX-GWF-CSUB-P04  PACKAGE EX-GWF-CSUB-P04 CONNECTED TO MODEL EX-GWF-CSUB-P04  PACKAGE CSUB             ON UNIT   1020 AT TIME STEP     15, STRESS PERIOD      2
 UBDSV1 SAVING  CSUB-WATERCOMP  ON UNIT   1020 AT TIME STEP     15, STRESS PERIOD      2
 UBDSV06 SAVING              WEL IN MODEL EX-GWF-CSUB-P04  PACKAGE EX-GWF-CSUB-P04 CONNECTED TO MODEL EX-GWF-CSUB-P04  PACKAGE WEL_0            ON UNIT   1020 AT TIME STEP     15, STRESS PERIOD      2
 UBDSV06 SAVING              RCH IN MODEL EX-GWF-CSUB-P04  PACKAGE EX-GWF-CSUB-P04 CONNECTED TO MODEL EX-GWF-CSUB-P04  PACKAGE RCH_0            ON UNIT   1020 AT TIME STEP     15, STRESS PERIOD      2
 UBDSV06 SAVING              CHD IN MODEL EX-GWF-CSUB-P04  PACKAGE EX-GWF-CSUB-P04 CONNECTED TO MODEL EX-GWF-CSUB-P04  PACKAGE CHD_0            ON UNIT   1020 AT TIME STEP     15, STRESS PERIOD      2

 HEAD WILL BE SAVED ON UNIT 1021 AT END OF TIME STEP   15, STRESS PERIOD    2


  VOLUME BUDGET FOR ENTIRE MODEL AT END OF TIME STEP   15, STRESS PERIOD   2
  ---------------------------------------------------------------------------------------------------

     CUMULATIVE VOLUME      L**3       RATES FOR THIS TIME STEP      L**3/T          PACKAGE NAME    
     ------------------                 ------------------------                     ----------------

           IN:                                      IN:
           ---                                      ---
              STO-SS =           0.0000                STO-SS =           0.0000     STORAGE                          
              STO-SY =   774984854.8702                STO-SY =      140765.1615     STORAGE                          
      CSUB-CGELASTIC =     1922731.4201        CSUB-CGELASTIC =         323.2282     CSUB                             
        CSUB-ELASTIC =     5972629.0844          CSUB-ELASTIC =        1028.0236     CSUB                             
      CSUB-INELASTIC =     1545865.8993        CSUB-INELASTIC =         172.7223     CSUB                             
      CSUB-WATERCOMP =     2933260.3822        CSUB-WATERCOMP =         504.3829     CSUB                             
                 WEL =           0.0000                   WEL =           0.0000     WEL_0                            
                 RCH =   216958500.0000                   RCH =       39600.0000     RCH_0                            
                 CHD =           0.0000                   CHD =           0.0000     CHD_0                            

            TOTAL IN =  1004317841.6562              TOTAL IN =      182393.5186

          OUT:                                     OUT:
          ----                                     ----
              STO-SS =           0.0000                STO-SS =           0.0000     STORAGE                          
              STO-SY =           0.0000                STO-SY =           0.0000     STORAGE                          
      CSUB-CGELASTIC =     1681358.9299        CSUB-CGELASTIC =         308.0446     CSUB                             
        CSUB-ELASTIC =           0.0000          CSUB-ELASTIC =           0.0000     CSUB                             
      CSUB-INELASTIC =           0.0000        CSUB-INELASTIC =           0.0000     CSUB                             
      CSUB-WATERCOMP =           0.0000        CSUB-WATERCOMP =           0.0000     CSUB                             
                 WEL =   788940000.0000                   WEL =      144000.0000     WEL_0                            
                 RCH =           0.0000                   RCH =           0.0000     RCH_0                            
                 CHD =   213696482.7261                   CHD =       38085.4739     CHD_0                            

           TOTAL OUT =  1004317841.6559             TOTAL OUT =      182393.5186

            IN - OUT =       2.7525E-04              IN - OUT =       6.1234E-07

 PERCENT DISCREPANCY =           0.00     PERCENT DISCREPANCY =           0.00




         TIME SUMMARY AT END OF TIME STEP   15 IN STRESS PERIOD    2
                    SECONDS     MINUTES      HOURS       DAYS        YEARS
                    -----------------------------------------------------------
   TIME STEP LENGTH 3.15576E+07 5.25960E+05  8766.0      365.25      1.0000    
 STRESS PERIOD TIME 4.73364E+08 7.88940E+06 1.31490E+05  5478.8      15.000    
         TOTAL TIME 4.73364E+08 7.88940E+06 1.31490E+05  5478.8      15.000    


end timestep


start timestep kper="2" kstp="16" mode="normal"

 UBDSV1 SAVING           STO-SS ON UNIT   1020 AT TIME STEP     16, STRESS PERIOD      2
 UBDSV1 SAVING           STO-SY ON UNIT   1020 AT TIME STEP     16, STRESS PERIOD      2
 UBDSV1 SAVING     FLOW-JA-FACE ON UNIT   1020 AT TIME STEP     16, STRESS PERIOD      2
 UBDSV06 SAVING       DATA-SPDIS IN MODEL EX-GWF-CSUB-P04  PACKAGE NPF             CONNECTED TO MODEL EX-GWF-CSUB-P04  PACKAGE NPF              ON UNIT   1020 AT TIME STEP     16, STRESS PERIOD      2
 UBDSV1 SAVING  CSUB-CGELASTIC  ON UNIT   1020 AT TIME STEP     16, STRESS PERIOD      2
 UBDSV06 SAVING    CSUB-ELASTIC  IN MODEL EX-GWF-CSUB-P04  PACKAGE EX-GWF-CSUB-P04 CONNECTED TO MODEL EX-GWF-CSUB-P04  PACKAGE CSUB             ON UNIT   1020 AT TIME STEP     16, STRESS PERIOD      2
 UBDSV06 SAVING  CSUB-INELASTIC  IN MODEL EX-GWF-CSUB-P04  PACKAGE EX-GWF-CSUB-P04 CONNECTED TO MODEL EX-GWF-CSUB-P04  PACKAGE CSUB             ON UNIT   1020 AT TIME STEP     16, STRESS PERIOD      2
 UBDSV1 SAVING  CSUB-WATERCOMP  ON UNIT   1020 AT TIME STEP     16, STRESS PERIOD      2
 UBDSV06 SAVING              WEL IN MODEL EX-GWF-CSUB-P04  PACKAGE EX-GWF-CSUB-P04 CONNECTED TO MODEL EX-GWF-CSUB-P04  PACKAGE WEL_0            ON UNIT   1020 AT TIME STEP     16, STRESS PERIOD      2
 UBDSV06 SAVING              RCH IN MODEL EX-GWF-CSUB-P04  PACKAGE EX-GWF-CSUB-P04 CONNECTED TO MODEL EX-GWF-CSUB-P04  PACKAGE RCH_0            ON UNIT   1020 AT TIME STEP     16, STRESS PERIOD      2
 UBDSV06 SAVING              CHD IN MODEL EX-GWF-CSUB-P04  PACKAGE EX-GWF-CSUB-P04 CONNECTED TO MODEL EX-GWF-CSUB-P04  PACKAGE CHD_0            ON UNIT   1020 AT TIME STEP     16, STRESS PERIOD      2

 HEAD WILL BE SAVED ON UNIT 1021 AT END OF TIME STEP   16, STRESS PERIOD    2


  VOLUME BUDGET FOR ENTIRE MODEL AT END OF TIME STEP   16, STRESS PERIOD   2
  ---------------------------------------------------------------------------------------------------

     CUMULATIVE VOLUME      L**3       RATES FOR THIS TIME STEP      L**3/T          PACKAGE NAME    
     ------------------                 ------------------------                     ----------------

           IN:                                      IN:
           ---                                      ---
              STO-SS =           0.0000                STO-SS =           0.0000     STORAGE                          
              STO-SY =   826336856.4832                STO-SY =      140594.1180     STORAGE                          
      CSUB-CGELASTIC =     2040596.2954        CSUB-CGELASTIC =         322.6964     CSUB                             
        CSUB-ELASTIC =     6346937.6691          CSUB-ELASTIC =        1024.8011     CSUB                             
      CSUB-INELASTIC =     1605853.7273        CSUB-INELASTIC =         164.2377     CSUB                             
      CSUB-WATERCOMP =     3117173.5105        CSUB-WATERCOMP =         503.5267     CSUB                             
                 WEL =           0.0000                   WEL =           0.0000     WEL_0                            
                 RCH =   231422400.0000                   RCH =       39600.0000     RCH_0                            
                 CHD =           0.0000                   CHD =           0.0000     CHD_0                            

            TOTAL IN =  1070869817.6855              TOTAL IN =      182209.3800

          OUT:                                     OUT:
          ----                                     ----
              STO-SS =           0.0000                STO-SS =           0.0000     STORAGE                          
              STO-SY =           0.0000                STO-SY =           0.0000     STORAGE                          
      CSUB-CGELASTIC =     1793831.9493        CSUB-CGELASTIC =         307.9343     CSUB                             
        CSUB-ELASTIC =           0.0000          CSUB-ELASTIC =           0.0000     CSUB                             
      CSUB-INELASTIC =           0.0000        CSUB-INELASTIC =           0.0000     CSUB                             
      CSUB-WATERCOMP =           0.0000        CSUB-WATERCOMP =           0.0000     CSUB                             
                 WEL =   841536000.0000                   WEL =      144000.0000     WEL_0                            
                 RCH =           0.0000                   RCH =           0.0000     RCH_0                            
                 CHD =   227539985.7356                   CHD =       37901.4456     CHD_0                            

           TOTAL OUT =  1070869817.6849             TOTAL OUT =      182209.3800

            IN - OUT =       5.2130E-04              IN - OUT =       6.7407E-07

 PERCENT DISCREPANCY =           0.00     PERCENT DISCREPANCY =           0.00




         TIME SUMMARY AT END OF TIME STEP   16 IN STRESS PERIOD    2
                    SECONDS     MINUTES      HOURS       DAYS        YEARS
                    -----------------------------------------------------------
   TIME STEP LENGTH 3.15576E+07 5.25960E+05  8766.0      365.25      1.0000    
 STRESS PERIOD TIME 5.04922E+08 8.41536E+06 1.40256E+05  5844.0      16.000    
         TOTAL TIME 5.04922E+08 8.41536E+06 1.40256E+05  5844.0      16.000    


end timestep


start timestep kper="2" kstp="17" mode="normal"

 UBDSV1 SAVING           STO-SS ON UNIT   1020 AT TIME STEP     17, STRESS PERIOD      2
 UBDSV1 SAVING           STO-SY ON UNIT   1020 AT TIME STEP     17, STRESS PERIOD      2
 UBDSV1 SAVING     FLOW-JA-FACE ON UNIT   1020 AT TIME STEP     17, STRESS PERIOD      2
 UBDSV06 SAVING       DATA-SPDIS IN MODEL EX-GWF-CSUB-P04  PACKAGE NPF             CONNECTED TO MODEL EX-GWF-CSUB-P04  PACKAGE NPF              ON UNIT   1020 AT TIME STEP     17, STRESS PERIOD      2
 UBDSV1 SAVING  CSUB-CGELASTIC  ON UNIT   1020 AT TIME STEP     17, STRESS PERIOD      2
 UBDSV06 SAVING    CSUB-ELASTIC  IN MODEL EX-GWF-CSUB-P04  PACKAGE EX-GWF-CSUB-P04 CONNECTED TO MODEL EX-GWF-CSUB-P04  PACKAGE CSUB             ON UNIT   1020 AT TIME STEP     17, STRESS PERIOD      2
 UBDSV06 SAVING  CSUB-INELASTIC  IN MODEL EX-GWF-CSUB-P04  PACKAGE EX-GWF-CSUB-P04 CONNECTED TO MODEL EX-GWF-CSUB-P04  PACKAGE CSUB             ON UNIT   1020 AT TIME STEP     17, STRESS PERIOD      2
 UBDSV1 SAVING  CSUB-WATERCOMP  ON UNIT   1020 AT TIME STEP     17, STRESS PERIOD      2
 UBDSV06 SAVING              WEL IN MODEL EX-GWF-CSUB-P04  PACKAGE EX-GWF-CSUB-P04 CONNECTED TO MODEL EX-GWF-CSUB-P04  PACKAGE WEL_0            ON UNIT   1020 AT TIME STEP     17, STRESS PERIOD      2
 UBDSV06 SAVING              RCH IN MODEL EX-GWF-CSUB-P04  PACKAGE EX-GWF-CSUB-P04 CONNECTED TO MODEL EX-GWF-CSUB-P04  PACKAGE RCH_0            ON UNIT   1020 AT TIME STEP     17, STRESS PERIOD      2
 UBDSV06 SAVING              CHD IN MODEL EX-GWF-CSUB-P04  PACKAGE EX-GWF-CSUB-P04 CONNECTED TO MODEL EX-GWF-CSUB-P04  PACKAGE CHD_0            ON UNIT   1020 AT TIME STEP     17, STRESS PERIOD      2

 HEAD WILL BE SAVED ON UNIT 1021 AT END OF TIME STEP   17, STRESS PERIOD    2


  VOLUME BUDGET FOR ENTIRE MODEL AT END OF TIME STEP   17, STRESS PERIOD   2
  ---------------------------------------------------------------------------------------------------

     CUMULATIVE VOLUME      L**3       RATES FOR THIS TIME STEP      L**3/T          PACKAGE NAME    
     ------------------                 ------------------------                     ----------------

           IN:                                      IN:
           ---                                      ---
              STO-SS =           0.0000                STO-SS =           0.0000     STORAGE                          
              STO-SY =   877623401.7679                STO-SY =      140414.9084     STORAGE                          
      CSUB-CGELASTIC =     2158259.8948        CSUB-CGELASTIC =         322.1454     CSUB                             
        CSUB-ELASTIC =     6720015.6544          CSUB-ELASTIC =        1021.4319     CSUB                             
      CSUB-INELASTIC =     1663139.1667        CSUB-INELASTIC =         156.8390     CSUB                             
      CSUB-WATERCOMP =     3300762.7989        CSUB-WATERCOMP =         502.6401     CSUB                             
                 WEL =           0.0000                   WEL =           0.0000     WEL_0                            
                 RCH =   245886300.0000                   RCH =       39600.0000     RCH_0                            
                 CHD =           0.0000                   CHD =           0.0000     CHD_0                            

            TOTAL IN =  1137351879.2827              TOTAL IN =      182017.9647

          OUT:                                     OUT:
          ----                                     ----
              STO-SS =           0.0000                STO-SS =           0.0000     STORAGE                          
              STO-SY =           0.0000                STO-SY =           0.0000     STORAGE                          
      CSUB-CGELASTIC =     1906259.1052        CSUB-CGELASTIC =         307.8088     CSUB                             
        CSUB-ELASTIC =           0.0000          CSUB-ELASTIC =           0.0000     CSUB                             
      CSUB-INELASTIC =           0.0000        CSUB-INELASTIC =           0.0000     CSUB                             
      CSUB-WATERCOMP =           0.0000        CSUB-WATERCOMP =           0.0000     CSUB                             
                 WEL =   894132000.0000                   WEL =      144000.0000     WEL_0                            
                 RCH =           0.0000                   RCH =           0.0000     RCH_0                            
                 CHD =   241313620.1768                   CHD =       37710.1559     CHD_0                            

           TOTAL OUT =  1137351879.2820             TOTAL OUT =      182017.9647

            IN - OUT =       7.1430E-04              IN - OUT =       5.2812E-07

 PERCENT DISCREPANCY =           0.00     PERCENT DISCREPANCY =           0.00




         TIME SUMMARY AT END OF TIME STEP   17 IN STRESS PERIOD    2
                    SECONDS     MINUTES      HOURS       DAYS        YEARS
                    -----------------------------------------------------------
   TIME STEP LENGTH 3.15576E+07 5.25960E+05  8766.0      365.25      1.0000    
 STRESS PERIOD TIME 5.36479E+08 8.94132E+06 1.49022E+05  6209.2      17.000    
         TOTAL TIME 5.36479E+08 8.94132E+06 1.49022E+05  6209.2      17.000    


end timestep


start timestep kper="2" kstp="18" mode="normal"

 UBDSV1 SAVING           STO-SS ON UNIT   1020 AT TIME STEP     18, STRESS PERIOD      2
 UBDSV1 SAVING           STO-SY ON UNIT   1020 AT TIME STEP     18, STRESS PERIOD      2
 UBDSV1 SAVING     FLOW-JA-FACE ON UNIT   1020 AT TIME STEP     18, STRESS PERIOD      2
 UBDSV06 SAVING       DATA-SPDIS IN MODEL EX-GWF-CSUB-P04  PACKAGE NPF             CONNECTED TO MODEL EX-GWF-CSUB-P04  PACKAGE NPF              ON UNIT   1020 AT TIME STEP     18, STRESS PERIOD      2
 UBDSV1 SAVING  CSUB-CGELASTIC  ON UNIT   1020 AT TIME STEP     18, STRESS PERIOD      2
 UBDSV06 SAVING    CSUB-ELASTIC  IN MODEL EX-GWF-CSUB-P04  PACKAGE EX-GWF-CSUB-P04 CONNECTED TO MODEL EX-GWF-CSUB-P04  PACKAGE CSUB             ON UNIT   1020 AT TIME STEP     18, STRESS PERIOD      2
 UBDSV06 SAVING  CSUB-INELASTIC  IN MODEL EX-GWF-CSUB-P04  PACKAGE EX-GWF-CSUB-P04 CONNECTED TO MODEL EX-GWF-CSUB-P04  PACKAGE CSUB             ON UNIT   1020 AT TIME STEP     18, STRESS PERIOD      2
 UBDSV1 SAVING  CSUB-WATERCOMP  ON UNIT   1020 AT TIME STEP     18, STRESS PERIOD      2
 UBDSV06 SAVING              WEL IN MODEL EX-GWF-CSUB-P04  PACKAGE EX-GWF-CSUB-P04 CONNECTED TO MODEL EX-GWF-CSUB-P04  PACKAGE WEL_0            ON UNIT   1020 AT TIME STEP     18, STRESS PERIOD      2
 UBDSV06 SAVING              RCH IN MODEL EX-GWF-CSUB-P04  PACKAGE EX-GWF-CSUB-P04 CONNECTED TO MODEL EX-GWF-CSUB-P04  PACKAGE RCH_0            ON UNIT   1020 AT TIME STEP     18, STRESS PERIOD      2
 UBDSV06 SAVING              CHD IN MODEL EX-GWF-CSUB-P04  PACKAGE EX-GWF-CSUB-P04 CONNECTED TO MODEL EX-GWF-CSUB-P04  PACKAGE CHD_0            ON UNIT   1020 AT TIME STEP     18, STRESS PERIOD      2

 HEAD WILL BE SAVED ON UNIT 1021 AT END OF TIME STEP   18, STRESS PERIOD    2


  VOLUME BUDGET FOR ENTIRE MODEL AT END OF TIME STEP   18, STRESS PERIOD   2
  ---------------------------------------------------------------------------------------------------

     CUMULATIVE VOLUME      L**3       RATES FOR THIS TIME STEP      L**3/T          PACKAGE NAME    
     ------------------                 ------------------------                     ----------------

           IN:                                      IN:
           ---                                      ---
              STO-SS =           0.0000                STO-SS =           0.0000     STORAGE                          
              STO-SY =   928841792.0628                STO-SY =      140228.3102     STORAGE                          
      CSUB-CGELASTIC =     2275715.7765        CSUB-CGELASTIC =         321.5767     CSUB                             
        CSUB-ELASTIC =     7091814.5498          CSUB-ELASTIC =        1017.9299     CSUB                             
      CSUB-INELASTIC =     1718050.0089        CSUB-INELASTIC =         150.3377     CSUB                             
      CSUB-WATERCOMP =     3484018.0362        CSUB-WATERCOMP =         501.7255     CSUB                             
                 WEL =           0.0000                   WEL =           0.0000     WEL_0                            
                 RCH =   260350200.0000                   RCH =       39600.0000     RCH_0                            
                 CHD =           0.0000                   CHD =           0.0000     CHD_0                            

            TOTAL IN =  1203761590.4342              TOTAL IN =      181819.8799

          OUT:                                     OUT:
          ----                                     ----
              STO-SS =           0.0000                STO-SS =           0.0000     STORAGE                          
              STO-SY =           0.0000                STO-SY =           0.0000     STORAGE                          
      CSUB-CGELASTIC =     2018635.6006        CSUB-CGELASTIC =         307.6701     CSUB                             
        CSUB-ELASTIC =           0.0000          CSUB-ELASTIC =           0.0000     CSUB                             
      CSUB-INELASTIC =           0.0000        CSUB-INELASTIC =           0.0000     CSUB                             
      CSUB-WATERCOMP =           0.0000        CSUB-WATERCOMP =           0.0000     CSUB                             
                 WEL =   946728000.0000                   WEL =      144000.0000     WEL_0                            
                 RCH =           0.0000                   RCH =           0.0000     RCH_0                            
                 CHD =   255014954.8327                   CHD =       37512.2099     CHD_0                            

           TOTAL OUT =  1203761590.4332             TOTAL OUT =      181819.8799

            IN - OUT =       9.2554E-04              IN - OUT =       5.7888E-07

 PERCENT DISCREPANCY =           0.00     PERCENT DISCREPANCY =           0.00




         TIME SUMMARY AT END OF TIME STEP   18 IN STRESS PERIOD    2
                    SECONDS     MINUTES      HOURS       DAYS        YEARS
                    -----------------------------------------------------------
   TIME STEP LENGTH 3.15576E+07 5.25960E+05  8766.0      365.25      1.0000    
 STRESS PERIOD TIME 5.68037E+08 9.46728E+06 1.57788E+05  6574.5      18.000    
         TOTAL TIME 5.68037E+08 9.46728E+06 1.57788E+05  6574.5      18.000    


end timestep


start timestep kper="2" kstp="19" mode="normal"

 UBDSV1 SAVING           STO-SS ON UNIT   1020 AT TIME STEP     19, STRESS PERIOD      2
 UBDSV1 SAVING           STO-SY ON UNIT   1020 AT TIME STEP     19, STRESS PERIOD      2
 UBDSV1 SAVING     FLOW-JA-FACE ON UNIT   1020 AT TIME STEP     19, STRESS PERIOD      2
 UBDSV06 SAVING       DATA-SPDIS IN MODEL EX-GWF-CSUB-P04  PACKAGE NPF             CONNECTED TO MODEL EX-GWF-CSUB-P04  PACKAGE NPF              ON UNIT   1020 AT TIME STEP     19, STRESS PERIOD      2
 UBDSV1 SAVING  CSUB-CGELASTIC  ON UNIT   1020 AT TIME STEP     19, STRESS PERIOD      2
 UBDSV06 SAVING    CSUB-ELASTIC  IN MODEL EX-GWF-CSUB-P04  PACKAGE EX-GWF-CSUB-P04 CONNECTED TO MODEL EX-GWF-CSUB-P04  PACKAGE CSUB             ON UNIT   1020 AT TIME STEP     19, STRESS PERIOD      2
 UBDSV06 SAVING  CSUB-INELASTIC  IN MODEL EX-GWF-CSUB-P04  PACKAGE EX-GWF-CSUB-P04 CONNECTED TO MODEL EX-GWF-CSUB-P04  PACKAGE CSUB             ON UNIT   1020 AT TIME STEP     19, STRESS PERIOD      2
 UBDSV1 SAVING  CSUB-WATERCOMP  ON UNIT   1020 AT TIME STEP     19, STRESS PERIOD      2
 UBDSV06 SAVING              WEL IN MODEL EX-GWF-CSUB-P04  PACKAGE EX-GWF-CSUB-P04 CONNECTED TO MODEL EX-GWF-CSUB-P04  PACKAGE WEL_0            ON UNIT   1020 AT TIME STEP     19, STRESS PERIOD      2
 UBDSV06 SAVING              RCH IN MODEL EX-GWF-CSUB-P04  PACKAGE EX-GWF-CSUB-P04 CONNECTED TO MODEL EX-GWF-CSUB-P04  PACKAGE RCH_0            ON UNIT   1020 AT TIME STEP     19, STRESS PERIOD      2
 UBDSV06 SAVING              CHD IN MODEL EX-GWF-CSUB-P04  PACKAGE EX-GWF-CSUB-P04 CONNECTED TO MODEL EX-GWF-CSUB-P04  PACKAGE CHD_0            ON UNIT   1020 AT TIME STEP     19, STRESS PERIOD      2

 HEAD WILL BE SAVED ON UNIT 1021 AT END OF TIME STEP   19, STRESS PERIOD    2


  VOLUME BUDGET FOR ENTIRE MODEL AT END OF TIME STEP   19, STRESS PERIOD   2
  ---------------------------------------------------------------------------------------------------

     CUMULATIVE VOLUME      L**3       RATES FOR THIS TIME STEP      L**3/T          PACKAGE NAME    
     ------------------                 ------------------------                     ----------------

           IN:                                      IN:
           ---                                      ---
              STO-SS =           0.0000                STO-SS =           0.0000     STORAGE                          
              STO-SY =   979989586.3807                STO-SY =      140035.0289     STORAGE                          
      CSUB-CGELASTIC =     2392958.0761        CSUB-CGELASTIC =         320.9919     CSUB                             
        CSUB-ELASTIC =     7462290.4926          CSUB-ELASTIC =        1014.3079     CSUB                             
      CSUB-INELASTIC =     1770860.6889        CSUB-INELASTIC =         144.5878     CSUB                             
      CSUB-WATERCOMP =     3666929.8562        CSUB-WATERCOMP =         500.7853     CSUB                             
                 WEL =           0.0000                   WEL =           0.0000     WEL_0                            
                 RCH =   274814100.0000                   RCH =       39600.0000     RCH_0                            
                 CHD =           0.0000                   CHD =           0.0000     CHD_0                            

            TOTAL IN =  1270096725.4945              TOTAL IN =      181615.7017

          OUT:                                     OUT:
          ----                                     ----
              STO-SS =           0.0000                STO-SS =           0.0000     STORAGE                          
              STO-SY =           0.0000                STO-SY =           0.0000     STORAGE                          
      CSUB-CGELASTIC =     2130957.2824        CSUB-CGELASTIC =         307.5200     CSUB                             
        CSUB-ELASTIC =           0.0000          CSUB-ELASTIC =           0.0000     CSUB                             
      CSUB-INELASTIC =           0.0000        CSUB-INELASTIC =           0.0000     CSUB                             
      CSUB-WATERCOMP =           0.0000        CSUB-WATERCOMP =           0.0000     CSUB                             
                 WEL =   999324000.0000                   WEL =      144000.0000     WEL_0                            
                 RCH =           0.0000                   RCH =           0.0000     RCH_0                            
                 CHD =   268641768.2110                   CHD =       37308.1817     CHD_0                            

           TOTAL OUT =  1270096725.4934             TOTAL OUT =      181615.7017

            IN - OUT =       1.1096E-03              IN - OUT =       5.0387E-07

 PERCENT DISCREPANCY =           0.00     PERCENT DISCREPANCY =           0.00




         TIME SUMMARY AT END OF TIME STEP   19 IN STRESS PERIOD    2
                    SECONDS     MINUTES      HOURS       DAYS        YEARS
                    -----------------------------------------------------------
   TIME STEP LENGTH 3.15576E+07 5.25960E+05  8766.0      365.25      1.0000    
 STRESS PERIOD TIME 5.99594E+08 9.99324E+06 1.66554E+05  6939.8      19.000    
         TOTAL TIME 5.99594E+08 9.99324E+06 1.66554E+05  6939.8      19.000    


end timestep


start timestep kper="2" kstp="20" mode="normal"

 UBDSV1 SAVING           STO-SS ON UNIT   1020 AT TIME STEP     20, STRESS PERIOD      2
 UBDSV1 SAVING           STO-SY ON UNIT   1020 AT TIME STEP     20, STRESS PERIOD      2
 UBDSV1 SAVING     FLOW-JA-FACE ON UNIT   1020 AT TIME STEP     20, STRESS PERIOD      2
 UBDSV06 SAVING       DATA-SPDIS IN MODEL EX-GWF-CSUB-P04  PACKAGE NPF             CONNECTED TO MODEL EX-GWF-CSUB-P04  PACKAGE NPF              ON UNIT   1020 AT TIME STEP     20, STRESS PERIOD      2
 UBDSV1 SAVING  CSUB-CGELASTIC  ON UNIT   1020 AT TIME STEP     20, STRESS PERIOD      2
 UBDSV06 SAVING    CSUB-ELASTIC  IN MODEL EX-GWF-CSUB-P04  PACKAGE EX-GWF-CSUB-P04 CONNECTED TO MODEL EX-GWF-CSUB-P04  PACKAGE CSUB             ON UNIT   1020 AT TIME STEP     20, STRESS PERIOD      2
 UBDSV06 SAVING  CSUB-INELASTIC  IN MODEL EX-GWF-CSUB-P04  PACKAGE EX-GWF-CSUB-P04 CONNECTED TO MODEL EX-GWF-CSUB-P04  PACKAGE CSUB             ON UNIT   1020 AT TIME STEP     20, STRESS PERIOD      2
 UBDSV1 SAVING  CSUB-WATERCOMP  ON UNIT   1020 AT TIME STEP     20, STRESS PERIOD      2
 UBDSV06 SAVING              WEL IN MODEL EX-GWF-CSUB-P04  PACKAGE EX-GWF-CSUB-P04 CONNECTED TO MODEL EX-GWF-CSUB-P04  PACKAGE WEL_0            ON UNIT   1020 AT TIME STEP     20, STRESS PERIOD      2
 UBDSV06 SAVING              RCH IN MODEL EX-GWF-CSUB-P04  PACKAGE EX-GWF-CSUB-P04 CONNECTED TO MODEL EX-GWF-CSUB-P04  PACKAGE RCH_0            ON UNIT   1020 AT TIME STEP     20, STRESS PERIOD      2
 UBDSV06 SAVING              CHD IN MODEL EX-GWF-CSUB-P04  PACKAGE EX-GWF-CSUB-P04 CONNECTED TO MODEL EX-GWF-CSUB-P04  PACKAGE CHD_0            ON UNIT   1020 AT TIME STEP     20, STRESS PERIOD      2

 HEAD WILL BE SAVED ON UNIT 1021 AT END OF TIME STEP   20, STRESS PERIOD    2


  VOLUME BUDGET FOR ENTIRE MODEL AT END OF TIME STEP   20, STRESS PERIOD   2
  ---------------------------------------------------------------------------------------------------

     CUMULATIVE VOLUME      L**3       RATES FOR THIS TIME STEP      L**3/T          PACKAGE NAME    
     ------------------                 ------------------------                     ----------------

           IN:                                      IN:
           ---                                      ---
              STO-SS =           0.0000                STO-SS =           0.0000     STORAGE                          
              STO-SY =  1031064578.6319                STO-SY =      139835.7077     STORAGE                          
      CSUB-CGELASTIC =     2509981.4681        CSUB-CGELASTIC =         320.3926     CSUB                             
        CSUB-ELASTIC =     7831403.9104          CSUB-ELASTIC =        1010.5775     CSUB                             
      CSUB-INELASTIC =     1821803.4687        CSUB-INELASTIC =         139.4737     CSUB                             
      CSUB-WATERCOMP =     3849489.6946        CSUB-WATERCOMP =         499.8216     CSUB                             
                 WEL =           0.0000                   WEL =           0.0000     WEL_0                            
                 RCH =   289278000.0000                   RCH =       39600.0000     RCH_0                            
                 CHD =           0.0000                   CHD =           0.0000     CHD_0                            

            TOTAL IN =  1336355257.1737              TOTAL IN =      181405.9731

          OUT:                                     OUT:
          ----                                     ----
              STO-SS =           0.0000                STO-SS =           0.0000     STORAGE                          
              STO-SY =           0.0000                STO-SY =           0.0000     STORAGE                          
      CSUB-CGELASTIC =     2243220.5274        CSUB-CGELASTIC =         307.3600     CSUB                             
        CSUB-ELASTIC =           0.0000          CSUB-ELASTIC =           0.0000     CSUB                             
      CSUB-INELASTIC =           0.0000        CSUB-INELASTIC =           0.0000     CSUB                             
      CSUB-WATERCOMP =           0.0000        CSUB-WATERCOMP =           0.0000     CSUB                             
                 WEL =  1051920000.0000                   WEL =      144000.0000     WEL_0                            
                 RCH =           0.0000                   RCH =           0.0000     RCH_0                            
                 CHD =   282192036.6450                   CHD =       37098.6131     CHD_0                            

           TOTAL OUT =  1336355257.1724             TOTAL OUT =      181405.9731

            IN - OUT =       1.2791E-03              IN - OUT =       4.6418E-07

 PERCENT DISCREPANCY =           0.00     PERCENT DISCREPANCY =           0.00




         TIME SUMMARY AT END OF TIME STEP   20 IN STRESS PERIOD    2
                    SECONDS     MINUTES      HOURS       DAYS        YEARS
                    -----------------------------------------------------------
   TIME STEP LENGTH 3.15576E+07 5.25960E+05  8766.0      365.25      1.0000    
 STRESS PERIOD TIME 6.31152E+08 1.05192E+07 1.75320E+05  7305.0      20.000    
         TOTAL TIME 6.31152E+08 1.05192E+07 1.75320E+05  7305.0      20.000    


end timestep


start timestep kper="2" kstp="21" mode="normal"

 UBDSV1 SAVING           STO-SS ON UNIT   1020 AT TIME STEP     21, STRESS PERIOD      2
 UBDSV1 SAVING           STO-SY ON UNIT   1020 AT TIME STEP     21, STRESS PERIOD      2
 UBDSV1 SAVING     FLOW-JA-FACE ON UNIT   1020 AT TIME STEP     21, STRESS PERIOD      2
 UBDSV06 SAVING       DATA-SPDIS IN MODEL EX-GWF-CSUB-P04  PACKAGE NPF             CONNECTED TO MODEL EX-GWF-CSUB-P04  PACKAGE NPF              ON UNIT   1020 AT TIME STEP     21, STRESS PERIOD      2
 UBDSV1 SAVING  CSUB-CGELASTIC  ON UNIT   1020 AT TIME STEP     21, STRESS PERIOD      2
 UBDSV06 SAVING    CSUB-ELASTIC  IN MODEL EX-GWF-CSUB-P04  PACKAGE EX-GWF-CSUB-P04 CONNECTED TO MODEL EX-GWF-CSUB-P04  PACKAGE CSUB             ON UNIT   1020 AT TIME STEP     21, STRESS PERIOD      2
 UBDSV06 SAVING  CSUB-INELASTIC  IN MODEL EX-GWF-CSUB-P04  PACKAGE EX-GWF-CSUB-P04 CONNECTED TO MODEL EX-GWF-CSUB-P04  PACKAGE CSUB             ON UNIT   1020 AT TIME STEP     21, STRESS PERIOD      2
 UBDSV1 SAVING  CSUB-WATERCOMP  ON UNIT   1020 AT TIME STEP     21, STRESS PERIOD      2
 UBDSV06 SAVING              WEL IN MODEL EX-GWF-CSUB-P04  PACKAGE EX-GWF-CSUB-P04 CONNECTED TO MODEL EX-GWF-CSUB-P04  PACKAGE WEL_0            ON UNIT   1020 AT TIME STEP     21, STRESS PERIOD      2
 UBDSV06 SAVING              RCH IN MODEL EX-GWF-CSUB-P04  PACKAGE EX-GWF-CSUB-P04 CONNECTED TO MODEL EX-GWF-CSUB-P04  PACKAGE RCH_0            ON UNIT   1020 AT TIME STEP     21, STRESS PERIOD      2
 UBDSV06 SAVING              CHD IN MODEL EX-GWF-CSUB-P04  PACKAGE EX-GWF-CSUB-P04 CONNECTED TO MODEL EX-GWF-CSUB-P04  PACKAGE CHD_0            ON UNIT   1020 AT TIME STEP     21, STRESS PERIOD      2

 HEAD WILL BE SAVED ON UNIT 1021 AT END OF TIME STEP   21, STRESS PERIOD    2


  VOLUME BUDGET FOR ENTIRE MODEL AT END OF TIME STEP   21, STRESS PERIOD   2
  ---------------------------------------------------------------------------------------------------

     CUMULATIVE VOLUME      L**3       RATES FOR THIS TIME STEP      L**3/T          PACKAGE NAME    
     ------------------                 ------------------------                     ----------------

           IN:                                      IN:
           ---                                      ---
              STO-SS =           0.0000                STO-SS =           0.0000     STORAGE                          
              STO-SY =  1082064777.4989                STO-SY =      139630.9346     STORAGE                          
      CSUB-CGELASTIC =     2626781.1292        CSUB-CGELASTIC =         319.7800     CSUB                             
        CSUB-ELASTIC =     8199119.2329          CSUB-ELASTIC =        1006.7497     CSUB                             
      CSUB-INELASTIC =     1871076.7157        CSUB-INELASTIC =         134.9028     CSUB                             
      CSUB-WATERCOMP =     4031689.7466        CSUB-WATERCOMP =         498.8366     CSUB                             
                 WEL =           0.0000                   WEL =           0.0000     WEL_0                            
                 RCH =   303741900.0000                   RCH =       39600.0000     RCH_0                            
                 CHD =           0.0000                   CHD =           0.0000     CHD_0                            

            TOTAL IN =  1402535344.3232              TOTAL IN =      181191.2037

          OUT:                                     OUT:
          ----                                     ----
              STO-SS =           0.0000                STO-SS =           0.0000     STORAGE                          
              STO-SY =           0.0000                STO-SY =           0.0000     STORAGE                          
      CSUB-CGELASTIC =     2355422.1508        CSUB-CGELASTIC =         307.1913     CSUB                             
        CSUB-ELASTIC =           0.0000          CSUB-ELASTIC =           0.0000     CSUB                             
      CSUB-INELASTIC =           0.0000        CSUB-INELASTIC =           0.0000     CSUB                             
      CSUB-WATERCOMP =           0.0000        CSUB-WATERCOMP =           0.0000     CSUB                             
                 WEL =  1104516000.0000                   WEL =      144000.0000     WEL_0                            
                 RCH =           0.0000                   RCH =           0.0000     RCH_0                            
                 CHD =   295663922.1710                   CHD =       36884.0124     CHD_0                            

           TOTAL OUT =  1402535344.3218             TOTAL OUT =      181191.2037

            IN - OUT =       1.4272E-03              IN - OUT =       4.0475E-07

 PERCENT DISCREPANCY =           0.00     PERCENT DISCREPANCY =           0.00




         TIME SUMMARY AT END OF TIME STEP   21 IN STRESS PERIOD    2
                    SECONDS     MINUTES      HOURS       DAYS        YEARS
                    -----------------------------------------------------------
   TIME STEP LENGTH 3.15576E+07 5.25960E+05  8766.0      365.25      1.0000    
 STRESS PERIOD TIME 6.62710E+08 1.10452E+07 1.84086E+05  7670.2      21.000    
         TOTAL TIME 6.62710E+08 1.10452E+07 1.84086E+05  7670.2      21.000    


end timestep


start timestep kper="2" kstp="22" mode="normal"

 UBDSV1 SAVING           STO-SS ON UNIT   1020 AT TIME STEP     22, STRESS PERIOD      2
 UBDSV1 SAVING           STO-SY ON UNIT   1020 AT TIME STEP     22, STRESS PERIOD      2
 UBDSV1 SAVING     FLOW-JA-FACE ON UNIT   1020 AT TIME STEP     22, STRESS PERIOD      2
 UBDSV06 SAVING       DATA-SPDIS IN MODEL EX-GWF-CSUB-P04  PACKAGE NPF             CONNECTED TO MODEL EX-GWF-CSUB-P04  PACKAGE NPF              ON UNIT   1020 AT TIME STEP     22, STRESS PERIOD      2
 UBDSV1 SAVING  CSUB-CGELASTIC  ON UNIT   1020 AT TIME STEP     22, STRESS PERIOD      2
 UBDSV06 SAVING    CSUB-ELASTIC  IN MODEL EX-GWF-CSUB-P04  PACKAGE EX-GWF-CSUB-P04 CONNECTED TO MODEL EX-GWF-CSUB-P04  PACKAGE CSUB             ON UNIT   1020 AT TIME STEP     22, STRESS PERIOD      2
 UBDSV06 SAVING  CSUB-INELASTIC  IN MODEL EX-GWF-CSUB-P04  PACKAGE EX-GWF-CSUB-P04 CONNECTED TO MODEL EX-GWF-CSUB-P04  PACKAGE CSUB             ON UNIT   1020 AT TIME STEP     22, STRESS PERIOD      2
 UBDSV1 SAVING  CSUB-WATERCOMP  ON UNIT   1020 AT TIME STEP     22, STRESS PERIOD      2
 UBDSV06 SAVING              WEL IN MODEL EX-GWF-CSUB-P04  PACKAGE EX-GWF-CSUB-P04 CONNECTED TO MODEL EX-GWF-CSUB-P04  PACKAGE WEL_0            ON UNIT   1020 AT TIME STEP     22, STRESS PERIOD      2
 UBDSV06 SAVING              RCH IN MODEL EX-GWF-CSUB-P04  PACKAGE EX-GWF-CSUB-P04 CONNECTED TO MODEL EX-GWF-CSUB-P04  PACKAGE RCH_0            ON UNIT   1020 AT TIME STEP     22, STRESS PERIOD      2
 UBDSV06 SAVING              CHD IN MODEL EX-GWF-CSUB-P04  PACKAGE EX-GWF-CSUB-P04 CONNECTED TO MODEL EX-GWF-CSUB-P04  PACKAGE CHD_0            ON UNIT   1020 AT TIME STEP     22, STRESS PERIOD      2

 HEAD WILL BE SAVED ON UNIT 1021 AT END OF TIME STEP   22, STRESS PERIOD    2


  VOLUME BUDGET FOR ENTIRE MODEL AT END OF TIME STEP   22, STRESS PERIOD   2
  ---------------------------------------------------------------------------------------------------

     CUMULATIVE VOLUME      L**3       RATES FOR THIS TIME STEP      L**3/T          PACKAGE NAME    
     ------------------                 ------------------------                     ----------------

           IN:                                      IN:
           ---                                      ---
              STO-SS =           0.0000                STO-SS =           0.0000     STORAGE                          
              STO-SY =  1132988388.3841                STO-SY =      139421.2481     STORAGE                          
      CSUB-CGELASTIC =     2743352.7045        CSUB-CGELASTIC =         319.1556     CSUB                             
        CSUB-ELASTIC =     8565404.6305          CSUB-ELASTIC =        1002.8348     CSUB                             
      CSUB-INELASTIC =     1918851.1622        CSUB-INELASTIC =         130.7993     CSUB                             
      CSUB-WATERCOMP =     4213522.9246        CSUB-WATERCOMP =         497.8321     CSUB                             
                 WEL =           0.0000                   WEL =           0.0000     WEL_0                            
                 RCH =   318205800.0000                   RCH =       39600.0000     RCH_0                            
                 CHD =           0.0000                   CHD =           0.0000     CHD_0                            

            TOTAL IN =  1468635319.8059              TOTAL IN =      180971.8699

          OUT:                                     OUT:
          ----                                     ----
              STO-SS =           0.0000                STO-SS =           0.0000     STORAGE                          
              STO-SY =           0.0000                STO-SY =           0.0000     STORAGE                          
      CSUB-CGELASTIC =     2467559.3340        CSUB-CGELASTIC =         307.0149     CSUB                             
        CSUB-ELASTIC =           0.0000          CSUB-ELASTIC =           0.0000     CSUB                             
      CSUB-INELASTIC =           0.0000        CSUB-INELASTIC =           0.0000     CSUB                             
      CSUB-WATERCOMP =           0.0000        CSUB-WATERCOMP =           0.0000     CSUB                             
                 WEL =  1157112000.0000                   WEL =      144000.0000     WEL_0                            
                 RCH =           0.0000                   RCH =           0.0000     RCH_0                            
                 CHD =   309055760.4703                   CHD =       36664.8550     CHD_0                            

           TOTAL OUT =  1468635319.8043             TOTAL OUT =      180971.8699

            IN - OUT =       1.5917E-03              IN - OUT =       4.5027E-07

 PERCENT DISCREPANCY =           0.00     PERCENT DISCREPANCY =           0.00




         TIME SUMMARY AT END OF TIME STEP   22 IN STRESS PERIOD    2
                    SECONDS     MINUTES      HOURS       DAYS        YEARS
                    -----------------------------------------------------------
   TIME STEP LENGTH 3.15576E+07 5.25960E+05  8766.0      365.25      1.0000    
 STRESS PERIOD TIME 6.94267E+08 1.15711E+07 1.92852E+05  8035.5      22.000    
         TOTAL TIME 6.94267E+08 1.15711E+07 1.92852E+05  8035.5      22.000    


end timestep


start timestep kper="2" kstp="23" mode="normal"

 UBDSV1 SAVING           STO-SS ON UNIT   1020 AT TIME STEP     23, STRESS PERIOD      2
 UBDSV1 SAVING           STO-SY ON UNIT   1020 AT TIME STEP     23, STRESS PERIOD      2
 UBDSV1 SAVING     FLOW-JA-FACE ON UNIT   1020 AT TIME STEP     23, STRESS PERIOD      2
 UBDSV06 SAVING       DATA-SPDIS IN MODEL EX-GWF-CSUB-P04  PACKAGE NPF             CONNECTED TO MODEL EX-GWF-CSUB-P04  PACKAGE NPF              ON UNIT   1020 AT TIME STEP     23, STRESS PERIOD      2
 UBDSV1 SAVING  CSUB-CGELASTIC  ON UNIT   1020 AT TIME STEP     23, STRESS PERIOD      2
 UBDSV06 SAVING    CSUB-ELASTIC  IN MODEL EX-GWF-CSUB-P04  PACKAGE EX-GWF-CSUB-P04 CONNECTED TO MODEL EX-GWF-CSUB-P04  PACKAGE CSUB             ON UNIT   1020 AT TIME STEP     23, STRESS PERIOD      2
 UBDSV06 SAVING  CSUB-INELASTIC  IN MODEL EX-GWF-CSUB-P04  PACKAGE EX-GWF-CSUB-P04 CONNECTED TO MODEL EX-GWF-CSUB-P04  PACKAGE CSUB             ON UNIT   1020 AT TIME STEP     23, STRESS PERIOD      2
 UBDSV1 SAVING  CSUB-WATERCOMP  ON UNIT   1020 AT TIME STEP     23, STRESS PERIOD      2
 UBDSV06 SAVING              WEL IN MODEL EX-GWF-CSUB-P04  PACKAGE EX-GWF-CSUB-P04 CONNECTED TO MODEL EX-GWF-CSUB-P04  PACKAGE WEL_0            ON UNIT   1020 AT TIME STEP     23, STRESS PERIOD      2
 UBDSV06 SAVING              RCH IN MODEL EX-GWF-CSUB-P04  PACKAGE EX-GWF-CSUB-P04 CONNECTED TO MODEL EX-GWF-CSUB-P04  PACKAGE RCH_0            ON UNIT   1020 AT TIME STEP     23, STRESS PERIOD      2
 UBDSV06 SAVING              CHD IN MODEL EX-GWF-CSUB-P04  PACKAGE EX-GWF-CSUB-P04 CONNECTED TO MODEL EX-GWF-CSUB-P04  PACKAGE CHD_0            ON UNIT   1020 AT TIME STEP     23, STRESS PERIOD      2

 HEAD WILL BE SAVED ON UNIT 1021 AT END OF TIME STEP   23, STRESS PERIOD    2


  VOLUME BUDGET FOR ENTIRE MODEL AT END OF TIME STEP   23, STRESS PERIOD   2
  ---------------------------------------------------------------------------------------------------

     CUMULATIVE VOLUME      L**3       RATES FOR THIS TIME STEP      L**3/T          PACKAGE NAME    
     ------------------                 ------------------------                     ----------------

           IN:                                      IN:
           ---                                      ---
              STO-SS =           0.0000                STO-SS =           0.0000     STORAGE                          
              STO-SY =  1183833797.0603                STO-SY =      139207.1422     STORAGE                          
      CSUB-CGELASTIC =     2859692.2750        CSUB-CGELASTIC =         318.5204     CSUB                             
        CSUB-ELASTIC =     8930231.7679          CSUB-ELASTIC =         998.8423     CSUB                             
      CSUB-INELASTIC =     1965274.7292        CSUB-INELASTIC =         127.1008     CSUB                             
      CSUB-WATERCOMP =     4394982.8153        CSUB-WATERCOMP =         496.8101     CSUB                             
                 WEL =           0.0000                   WEL =           0.0000     WEL_0                            
                 RCH =   332669700.0000                   RCH =       39600.0000     RCH_0                            
                 CHD =           0.0000                   CHD =           0.0000     CHD_0                            

            TOTAL IN =  1534653678.6476              TOTAL IN =      180748.4157

          OUT:                                     OUT:
          ----                                     ----
              STO-SS =           0.0000                STO-SS =           0.0000     STORAGE                          
              STO-SY =           0.0000                STO-SY =           0.0000     STORAGE                          
      CSUB-CGELASTIC =     2579629.5658        CSUB-CGELASTIC =         306.8316     CSUB                             
        CSUB-ELASTIC =           0.0000          CSUB-ELASTIC =           0.0000     CSUB                             
      CSUB-INELASTIC =           0.0000        CSUB-INELASTIC =           0.0000     CSUB                             
      CSUB-WATERCOMP =           0.0000        CSUB-WATERCOMP =           0.0000     CSUB                             
                 WEL =  1209708000.0000                   WEL =      144000.0000     WEL_0                            
                 RCH =           0.0000                   RCH =           0.0000     RCH_0                            
                 CHD =   322366049.0800                   CHD =       36441.5841     CHD_0                            

           TOTAL OUT =  1534653678.6458             TOTAL OUT =      180748.4157

            IN - OUT =       1.7533E-03              IN - OUT =       4.4290E-07

 PERCENT DISCREPANCY =           0.00     PERCENT DISCREPANCY =           0.00




         TIME SUMMARY AT END OF TIME STEP   23 IN STRESS PERIOD    2
                    SECONDS     MINUTES      HOURS       DAYS        YEARS
                    -----------------------------------------------------------
   TIME STEP LENGTH 3.15576E+07 5.25960E+05  8766.0      365.25      1.0000    
 STRESS PERIOD TIME 7.25825E+08 1.20971E+07 2.01618E+05  8400.8      23.000    
         TOTAL TIME 7.25825E+08 1.20971E+07 2.01618E+05  8400.8      23.000    


end timestep


start timestep kper="2" kstp="24" mode="normal"

 UBDSV1 SAVING           STO-SS ON UNIT   1020 AT TIME STEP     24, STRESS PERIOD      2
 UBDSV1 SAVING           STO-SY ON UNIT   1020 AT TIME STEP     24, STRESS PERIOD      2
 UBDSV1 SAVING     FLOW-JA-FACE ON UNIT   1020 AT TIME STEP     24, STRESS PERIOD      2
 UBDSV06 SAVING       DATA-SPDIS IN MODEL EX-GWF-CSUB-P04  PACKAGE NPF             CONNECTED TO MODEL EX-GWF-CSUB-P04  PACKAGE NPF              ON UNIT   1020 AT TIME STEP     24, STRESS PERIOD      2
 UBDSV1 SAVING  CSUB-CGELASTIC  ON UNIT   1020 AT TIME STEP     24, STRESS PERIOD      2
 UBDSV06 SAVING    CSUB-ELASTIC  IN MODEL EX-GWF-CSUB-P04  PACKAGE EX-GWF-CSUB-P04 CONNECTED TO MODEL EX-GWF-CSUB-P04  PACKAGE CSUB             ON UNIT   1020 AT TIME STEP     24, STRESS PERIOD      2
 UBDSV06 SAVING  CSUB-INELASTIC  IN MODEL EX-GWF-CSUB-P04  PACKAGE EX-GWF-CSUB-P04 CONNECTED TO MODEL EX-GWF-CSUB-P04  PACKAGE CSUB             ON UNIT   1020 AT TIME STEP     24, STRESS PERIOD      2
 UBDSV1 SAVING  CSUB-WATERCOMP  ON UNIT   1020 AT TIME STEP     24, STRESS PERIOD      2
 UBDSV06 SAVING              WEL IN MODEL EX-GWF-CSUB-P04  PACKAGE EX-GWF-CSUB-P04 CONNECTED TO MODEL EX-GWF-CSUB-P04  PACKAGE WEL_0            ON UNIT   1020 AT TIME STEP     24, STRESS PERIOD      2
 UBDSV06 SAVING              RCH IN MODEL EX-GWF-CSUB-P04  PACKAGE EX-GWF-CSUB-P04 CONNECTED TO MODEL EX-GWF-CSUB-P04  PACKAGE RCH_0            ON UNIT   1020 AT TIME STEP     24, STRESS PERIOD      2
 UBDSV06 SAVING              CHD IN MODEL EX-GWF-CSUB-P04  PACKAGE EX-GWF-CSUB-P04 CONNECTED TO MODEL EX-GWF-CSUB-P04  PACKAGE CHD_0            ON UNIT   1020 AT TIME STEP     24, STRESS PERIOD      2

 HEAD WILL BE SAVED ON UNIT 1021 AT END OF TIME STEP   24, STRESS PERIOD    2


  VOLUME BUDGET FOR ENTIRE MODEL AT END OF TIME STEP   24, STRESS PERIOD   2
  ---------------------------------------------------------------------------------------------------

     CUMULATIVE VOLUME      L**3       RATES FOR THIS TIME STEP      L**3/T          PACKAGE NAME    
     ------------------                 ------------------------                     ----------------

           IN:                                      IN:
           ---                                      ---
              STO-SS =           0.0000                STO-SS =           0.0000     STORAGE                          
              STO-SY =  1234593665.5688                STO-SY =      138972.9460     STORAGE                          
      CSUB-CGELASTIC =     2975767.2131        CSUB-CGELASTIC =         317.7959     CSUB                             
        CSUB-ELASTIC =     9293251.1364          CSUB-ELASTIC =         993.8929     CSUB                             
      CSUB-INELASTIC =     2016741.6539        CSUB-INELASTIC =         140.9088     CSUB                             
      CSUB-WATERCOMP =     4576027.4650        CSUB-WATERCOMP =         495.6732     CSUB                             
                 WEL =           0.0000                   WEL =           0.0000     WEL_0                            
                 RCH =   347133600.0000                   RCH =       39600.0000     RCH_0                            
                 CHD =           0.0000                   CHD =           0.0000     CHD_0                            

            TOTAL IN =  1600589053.0372              TOTAL IN =      180521.2167

          OUT:                                     OUT:
          ----                                     ----
              STO-SS =           0.0000                STO-SS =           0.0000     STORAGE                          
              STO-SY =           0.0000                STO-SY =           0.0000     STORAGE                          
      CSUB-CGELASTIC =     2691616.9238        CSUB-CGELASTIC =         306.6047     CSUB                             
        CSUB-ELASTIC =           0.0000          CSUB-ELASTIC =           0.0000     CSUB                             
      CSUB-INELASTIC =           0.0000        CSUB-INELASTIC =           0.0000     CSUB                             
      CSUB-WATERCOMP =           0.0000        CSUB-WATERCOMP =           0.0000     CSUB                             
                 WEL =  1262304000.0000                   WEL =      144000.0000     WEL_0                            
                 RCH =           0.0000                   RCH =           0.0000     RCH_0                            
                 CHD =   335593436.1116                   CHD =       36214.6120     CHD_0                            

           TOTAL OUT =  1600589053.0354             TOTAL OUT =      180521.2167

            IN - OUT =       1.7891E-03              IN - OUT =       9.7760E-08

 PERCENT DISCREPANCY =           0.00     PERCENT DISCREPANCY =           0.00




         TIME SUMMARY AT END OF TIME STEP   24 IN STRESS PERIOD    2
                    SECONDS     MINUTES      HOURS       DAYS        YEARS
                    -----------------------------------------------------------
   TIME STEP LENGTH 3.15576E+07 5.25960E+05  8766.0      365.25      1.0000    
 STRESS PERIOD TIME 7.57382E+08 1.26230E+07 2.10384E+05  8766.0      24.000    
         TOTAL TIME 7.57382E+08 1.26230E+07 2.10384E+05  8766.0      24.000    


end timestep


start timestep kper="2" kstp="25" mode="normal"

 UBDSV1 SAVING           STO-SS ON UNIT   1020 AT TIME STEP     25, STRESS PERIOD      2
 UBDSV1 SAVING           STO-SY ON UNIT   1020 AT TIME STEP     25, STRESS PERIOD      2
 UBDSV1 SAVING     FLOW-JA-FACE ON UNIT   1020 AT TIME STEP     25, STRESS PERIOD      2
 UBDSV06 SAVING       DATA-SPDIS IN MODEL EX-GWF-CSUB-P04  PACKAGE NPF             CONNECTED TO MODEL EX-GWF-CSUB-P04  PACKAGE NPF              ON UNIT   1020 AT TIME STEP     25, STRESS PERIOD      2
 UBDSV1 SAVING  CSUB-CGELASTIC  ON UNIT   1020 AT TIME STEP     25, STRESS PERIOD      2
 UBDSV06 SAVING    CSUB-ELASTIC  IN MODEL EX-GWF-CSUB-P04  PACKAGE EX-GWF-CSUB-P04 CONNECTED TO MODEL EX-GWF-CSUB-P04  PACKAGE CSUB             ON UNIT   1020 AT TIME STEP     25, STRESS PERIOD      2
 UBDSV06 SAVING  CSUB-INELASTIC  IN MODEL EX-GWF-CSUB-P04  PACKAGE EX-GWF-CSUB-P04 CONNECTED TO MODEL EX-GWF-CSUB-P04  PACKAGE CSUB             ON UNIT   1020 AT TIME STEP     25, STRESS PERIOD      2
 UBDSV1 SAVING  CSUB-WATERCOMP  ON UNIT   1020 AT TIME STEP     25, STRESS PERIOD      2
 UBDSV06 SAVING              WEL IN MODEL EX-GWF-CSUB-P04  PACKAGE EX-GWF-CSUB-P04 CONNECTED TO MODEL EX-GWF-CSUB-P04  PACKAGE WEL_0            ON UNIT   1020 AT TIME STEP     25, STRESS PERIOD      2
 UBDSV06 SAVING              RCH IN MODEL EX-GWF-CSUB-P04  PACKAGE EX-GWF-CSUB-P04 CONNECTED TO MODEL EX-GWF-CSUB-P04  PACKAGE RCH_0            ON UNIT   1020 AT TIME STEP     25, STRESS PERIOD      2
 UBDSV06 SAVING              CHD IN MODEL EX-GWF-CSUB-P04  PACKAGE EX-GWF-CSUB-P04 CONNECTED TO MODEL EX-GWF-CSUB-P04  PACKAGE CHD_0            ON UNIT   1020 AT TIME STEP     25, STRESS PERIOD      2

 HEAD WILL BE SAVED ON UNIT 1021 AT END OF TIME STEP   25, STRESS PERIOD    2


  VOLUME BUDGET FOR ENTIRE MODEL AT END OF TIME STEP   25, STRESS PERIOD   2
  ---------------------------------------------------------------------------------------------------

     CUMULATIVE VOLUME      L**3       RATES FOR THIS TIME STEP      L**3/T          PACKAGE NAME    
     ------------------                 ------------------------                     ----------------

           IN:                                      IN:
           ---                                      ---
              STO-SS =           0.0000                STO-SS =           0.0000     STORAGE                          
              STO-SY =  1285271180.8418                STO-SY =      138747.4751     STORAGE                          
      CSUB-CGELASTIC =     3091612.4507        CSUB-CGELASTIC =         317.1670     CSUB                             
        CSUB-ELASTIC =     9654727.0779          CSUB-ELASTIC =         989.6672     CSUB                             
      CSUB-INELASTIC =     2068520.8060        CSUB-INELASTIC =         141.7636     CSUB                             
      CSUB-WATERCOMP =     4756698.0184        CSUB-WATERCOMP =         494.6490     CSUB                             
                 WEL =           0.0000                   WEL =           0.0000     WEL_0                            
                 RCH =   361597500.0000                   RCH =       39600.0000     RCH_0                            
                 CHD =           0.0000                   CHD =           0.0000     CHD_0                            

            TOTAL IN =  1666440239.1948              TOTAL IN =      180290.7219

          OUT:                                     OUT:
          ----                                     ----
              STO-SS =           0.0000                STO-SS =           0.0000     STORAGE                          
              STO-SY =           0.0000                STO-SY =           0.0000     STORAGE                          
      CSUB-CGELASTIC =     2803529.9514        CSUB-CGELASTIC =         306.4012     CSUB                             
        CSUB-ELASTIC =           0.0000          CSUB-ELASTIC =           0.0000     CSUB                             
      CSUB-INELASTIC =           0.0000        CSUB-INELASTIC =           0.0000     CSUB                             
      CSUB-WATERCOMP =           0.0000        CSUB-WATERCOMP =           0.0000     CSUB                             
                 WEL =  1314900000.0000                   WEL =      144000.0000     WEL_0                            
                 RCH =           0.0000                   RCH =           0.0000     RCH_0                            
                 CHD =   348736709.2417                   CHD =       35984.3207     CHD_0                            

           TOTAL OUT =  1666440239.1930             TOTAL OUT =      180290.7219

            IN - OUT =       1.7757E-03              IN - OUT =      -3.6409E-08

 PERCENT DISCREPANCY =           0.00     PERCENT DISCREPANCY =          -0.00




         TIME SUMMARY AT END OF TIME STEP   25 IN STRESS PERIOD    2
                    SECONDS     MINUTES      HOURS       DAYS        YEARS
                    -----------------------------------------------------------
   TIME STEP LENGTH 3.15576E+07 5.25960E+05  8766.0      365.25      1.0000    
 STRESS PERIOD TIME 7.88940E+08 1.31490E+07 2.19150E+05  9131.2      25.000    
         TOTAL TIME 7.88940E+08 1.31490E+07 2.19150E+05  9131.2      25.000    


end timestep


start timestep kper="2" kstp="26" mode="normal"

 UBDSV1 SAVING           STO-SS ON UNIT   1020 AT TIME STEP     26, STRESS PERIOD      2
 UBDSV1 SAVING           STO-SY ON UNIT   1020 AT TIME STEP     26, STRESS PERIOD      2
 UBDSV1 SAVING     FLOW-JA-FACE ON UNIT   1020 AT TIME STEP     26, STRESS PERIOD      2
 UBDSV06 SAVING       DATA-SPDIS IN MODEL EX-GWF-CSUB-P04  PACKAGE NPF             CONNECTED TO MODEL EX-GWF-CSUB-P04  PACKAGE NPF              ON UNIT   1020 AT TIME STEP     26, STRESS PERIOD      2
 UBDSV1 SAVING  CSUB-CGELASTIC  ON UNIT   1020 AT TIME STEP     26, STRESS PERIOD      2
 UBDSV06 SAVING    CSUB-ELASTIC  IN MODEL EX-GWF-CSUB-P04  PACKAGE EX-GWF-CSUB-P04 CONNECTED TO MODEL EX-GWF-CSUB-P04  PACKAGE CSUB             ON UNIT   1020 AT TIME STEP     26, STRESS PERIOD      2
 UBDSV06 SAVING  CSUB-INELASTIC  IN MODEL EX-GWF-CSUB-P04  PACKAGE EX-GWF-CSUB-P04 CONNECTED TO MODEL EX-GWF-CSUB-P04  PACKAGE CSUB             ON UNIT   1020 AT TIME STEP     26, STRESS PERIOD      2
 UBDSV1 SAVING  CSUB-WATERCOMP  ON UNIT   1020 AT TIME STEP     26, STRESS PERIOD      2
 UBDSV06 SAVING              WEL IN MODEL EX-GWF-CSUB-P04  PACKAGE EX-GWF-CSUB-P04 CONNECTED TO MODEL EX-GWF-CSUB-P04  PACKAGE WEL_0            ON UNIT   1020 AT TIME STEP     26, STRESS PERIOD      2
 UBDSV06 SAVING              RCH IN MODEL EX-GWF-CSUB-P04  PACKAGE EX-GWF-CSUB-P04 CONNECTED TO MODEL EX-GWF-CSUB-P04  PACKAGE RCH_0            ON UNIT   1020 AT TIME STEP     26, STRESS PERIOD      2
 UBDSV06 SAVING              CHD IN MODEL EX-GWF-CSUB-P04  PACKAGE EX-GWF-CSUB-P04 CONNECTED TO MODEL EX-GWF-CSUB-P04  PACKAGE CHD_0            ON UNIT   1020 AT TIME STEP     26, STRESS PERIOD      2

 HEAD WILL BE SAVED ON UNIT 1021 AT END OF TIME STEP   26, STRESS PERIOD    2


  VOLUME BUDGET FOR ENTIRE MODEL AT END OF TIME STEP   26, STRESS PERIOD   2
  ---------------------------------------------------------------------------------------------------

     CUMULATIVE VOLUME      L**3       RATES FOR THIS TIME STEP      L**3/T          PACKAGE NAME    
     ------------------                 ------------------------                     ----------------

           IN:                                      IN:
           ---                                      ---
              STO-SS =           0.0000                STO-SS =           0.0000     STORAGE                          
              STO-SY =  1335866618.5292                STO-SY =      138522.7589     STORAGE                          
      CSUB-CGELASTIC =     3207220.1688        CSUB-CGELASTIC =         316.5167     CSUB                             
        CSUB-ELASTIC =    10014688.5317          CSUB-ELASTIC =         985.5207     CSUB                             
      CSUB-INELASTIC =     2119244.0864        CSUB-INELASTIC =         138.8728     CSUB                             
      CSUB-WATERCOMP =     4936984.2180        CSUB-WATERCOMP =         493.5967     CSUB                             
                 WEL =           0.0000                   WEL =           0.0000     WEL_0                            
                 RCH =   376061400.0000                   RCH =       39600.0000     RCH_0                            
                 CHD =           0.0000                   CHD =           0.0000     CHD_0                            

            TOTAL IN =  1732206155.5341              TOTAL IN =      180057.2658

          OUT:                                     OUT:
          ----                                     ----
              STO-SS =           0.0000                STO-SS =           0.0000     STORAGE                          
              STO-SY =           0.0000                STO-SY =           0.0000     STORAGE                          
      CSUB-CGELASTIC =     2915370.1029        CSUB-CGELASTIC =         306.2016     CSUB                             
        CSUB-ELASTIC =           0.0000          CSUB-ELASTIC =           0.0000     CSUB                             
      CSUB-INELASTIC =           0.0000        CSUB-INELASTIC =           0.0000     CSUB                             
      CSUB-WATERCOMP =           0.0000        CSUB-WATERCOMP =           0.0000     CSUB                             
                 WEL =  1367496000.0000                   WEL =      144000.0000     WEL_0                            
                 RCH =           0.0000                   RCH =           0.0000     RCH_0                            
                 CHD =   361794785.4295                   CHD =       35751.0642     CHD_0                            

           TOTAL OUT =  1732206155.5324             TOTAL OUT =      180057.2658

            IN - OUT =       1.7655E-03              IN - OUT =      -2.7911E-08

 PERCENT DISCREPANCY =           0.00     PERCENT DISCREPANCY =          -0.00




         TIME SUMMARY AT END OF TIME STEP   26 IN STRESS PERIOD    2
                    SECONDS     MINUTES      HOURS       DAYS        YEARS
                    -----------------------------------------------------------
   TIME STEP LENGTH 3.15576E+07 5.25960E+05  8766.0      365.25      1.0000    
 STRESS PERIOD TIME 8.20498E+08 1.36750E+07 2.27916E+05  9496.5      26.000    
         TOTAL TIME 8.20498E+08 1.36750E+07 2.27916E+05  9496.5      26.000    


end timestep


start timestep kper="2" kstp="27" mode="normal"

 UBDSV1 SAVING           STO-SS ON UNIT   1020 AT TIME STEP     27, STRESS PERIOD      2
 UBDSV1 SAVING           STO-SY ON UNIT   1020 AT TIME STEP     27, STRESS PERIOD      2
 UBDSV1 SAVING     FLOW-JA-FACE ON UNIT   1020 AT TIME STEP     27, STRESS PERIOD      2
 UBDSV06 SAVING       DATA-SPDIS IN MODEL EX-GWF-CSUB-P04  PACKAGE NPF             CONNECTED TO MODEL EX-GWF-CSUB-P04  PACKAGE NPF              ON UNIT   1020 AT TIME STEP     27, STRESS PERIOD      2
 UBDSV1 SAVING  CSUB-CGELASTIC  ON UNIT   1020 AT TIME STEP     27, STRESS PERIOD      2
 UBDSV06 SAVING    CSUB-ELASTIC  IN MODEL EX-GWF-CSUB-P04  PACKAGE EX-GWF-CSUB-P04 CONNECTED TO MODEL EX-GWF-CSUB-P04  PACKAGE CSUB             ON UNIT   1020 AT TIME STEP     27, STRESS PERIOD      2
 UBDSV06 SAVING  CSUB-INELASTIC  IN MODEL EX-GWF-CSUB-P04  PACKAGE EX-GWF-CSUB-P04 CONNECTED TO MODEL EX-GWF-CSUB-P04  PACKAGE CSUB             ON UNIT   1020 AT TIME STEP     27, STRESS PERIOD      2
 UBDSV1 SAVING  CSUB-WATERCOMP  ON UNIT   1020 AT TIME STEP     27, STRESS PERIOD      2
 UBDSV06 SAVING              WEL IN MODEL EX-GWF-CSUB-P04  PACKAGE EX-GWF-CSUB-P04 CONNECTED TO MODEL EX-GWF-CSUB-P04  PACKAGE WEL_0            ON UNIT   1020 AT TIME STEP     27, STRESS PERIOD      2
 UBDSV06 SAVING              RCH IN MODEL EX-GWF-CSUB-P04  PACKAGE EX-GWF-CSUB-P04 CONNECTED TO MODEL EX-GWF-CSUB-P04  PACKAGE RCH_0            ON UNIT   1020 AT TIME STEP     27, STRESS PERIOD      2
 UBDSV06 SAVING              CHD IN MODEL EX-GWF-CSUB-P04  PACKAGE EX-GWF-CSUB-P04 CONNECTED TO MODEL EX-GWF-CSUB-P04  PACKAGE CHD_0            ON UNIT   1020 AT TIME STEP     27, STRESS PERIOD      2

 HEAD WILL BE SAVED ON UNIT 1021 AT END OF TIME STEP   27, STRESS PERIOD    2


  VOLUME BUDGET FOR ENTIRE MODEL AT END OF TIME STEP   27, STRESS PERIOD   2
  ---------------------------------------------------------------------------------------------------

     CUMULATIVE VOLUME      L**3       RATES FOR THIS TIME STEP      L**3/T          PACKAGE NAME    
     ------------------                 ------------------------                     ----------------

           IN:                                      IN:
           ---                                      ---
              STO-SS =           0.0000                STO-SS =           0.0000     STORAGE                          
              STO-SY =  1386379029.5422                STO-SY =      138295.4443     STORAGE                          
      CSUB-CGELASTIC =     3322584.3779        CSUB-CGELASTIC =         315.8500     CSUB                             
        CSUB-ELASTIC =    10373113.8185          CSUB-ELASTIC =         981.3150     CSUB                             
      CSUB-INELASTIC =     2168931.4356        CSUB-INELASTIC =         136.0365     CSUB                             
      CSUB-WATERCOMP =     5116877.8365        CSUB-WATERCOMP =         492.5219     CSUB                             
                 WEL =           0.0000                   WEL =           0.0000     WEL_0                            
                 RCH =   390525300.0000                   RCH =       39600.0000     RCH_0                            
                 CHD =           0.0000                   CHD =           0.0000     CHD_0                            

            TOTAL IN =  1797885837.0107              TOTAL IN =      179821.1676

          OUT:                                     OUT:
          ----                                     ----
              STO-SS =           0.0000                STO-SS =           0.0000     STORAGE                          
              STO-SY =           0.0000                STO-SY =           0.0000     STORAGE                          
      CSUB-CGELASTIC =     3027135.8353        CSUB-CGELASTIC =         305.9979     CSUB                             
        CSUB-ELASTIC =           0.0000          CSUB-ELASTIC =           0.0000     CSUB                             
      CSUB-INELASTIC =           0.0000        CSUB-INELASTIC =           0.0000     CSUB                             
      CSUB-WATERCOMP =           0.0000        CSUB-WATERCOMP =           0.0000     CSUB                             
                 WEL =  1420092000.0000                   WEL =      144000.0000     WEL_0                            
                 RCH =           0.0000                   RCH =           0.0000     RCH_0                            
                 CHD =   374766701.1737                   CHD =       35515.1697     CHD_0                            

           TOTAL OUT =  1797885837.0089             TOTAL OUT =      179821.1676

            IN - OUT =       1.7977E-03              IN - OUT =       8.8476E-08

 PERCENT DISCREPANCY =           0.00     PERCENT DISCREPANCY =           0.00




         TIME SUMMARY AT END OF TIME STEP   27 IN STRESS PERIOD    2
                    SECONDS     MINUTES      HOURS       DAYS        YEARS
                    -----------------------------------------------------------
   TIME STEP LENGTH 3.15576E+07 5.25960E+05  8766.0      365.25      1.0000    
 STRESS PERIOD TIME 8.52055E+08 1.42009E+07 2.36682E+05  9861.8      27.000    
         TOTAL TIME 8.52055E+08 1.42009E+07 2.36682E+05  9861.8      27.000    


end timestep


start timestep kper="2" kstp="28" mode="normal"

 UBDSV1 SAVING           STO-SS ON UNIT   1020 AT TIME STEP     28, STRESS PERIOD      2
 UBDSV1 SAVING           STO-SY ON UNIT   1020 AT TIME STEP     28, STRESS PERIOD      2
 UBDSV1 SAVING     FLOW-JA-FACE ON UNIT   1020 AT TIME STEP     28, STRESS PERIOD      2
 UBDSV06 SAVING       DATA-SPDIS IN MODEL EX-GWF-CSUB-P04  PACKAGE NPF             CONNECTED TO MODEL EX-GWF-CSUB-P04  PACKAGE NPF              ON UNIT   1020 AT TIME STEP     28, STRESS PERIOD      2
 UBDSV1 SAVING  CSUB-CGELASTIC  ON UNIT   1020 AT TIME STEP     28, STRESS PERIOD      2
 UBDSV06 SAVING    CSUB-ELASTIC  IN MODEL EX-GWF-CSUB-P04  PACKAGE EX-GWF-CSUB-P04 CONNECTED TO MODEL EX-GWF-CSUB-P04  PACKAGE CSUB             ON UNIT   1020 AT TIME STEP     28, STRESS PERIOD      2
 UBDSV06 SAVING  CSUB-INELASTIC  IN MODEL EX-GWF-CSUB-P04  PACKAGE EX-GWF-CSUB-P04 CONNECTED TO MODEL EX-GWF-CSUB-P04  PACKAGE CSUB             ON UNIT   1020 AT TIME STEP     28, STRESS PERIOD      2
 UBDSV1 SAVING  CSUB-WATERCOMP  ON UNIT   1020 AT TIME STEP     28, STRESS PERIOD      2
 UBDSV06 SAVING              WEL IN MODEL EX-GWF-CSUB-P04  PACKAGE EX-GWF-CSUB-P04 CONNECTED TO MODEL EX-GWF-CSUB-P04  PACKAGE WEL_0            ON UNIT   1020 AT TIME STEP     28, STRESS PERIOD      2
 UBDSV06 SAVING              RCH IN MODEL EX-GWF-CSUB-P04  PACKAGE EX-GWF-CSUB-P04 CONNECTED TO MODEL EX-GWF-CSUB-P04  PACKAGE RCH_0            ON UNIT   1020 AT TIME STEP     28, STRESS PERIOD      2
 UBDSV06 SAVING              CHD IN MODEL EX-GWF-CSUB-P04  PACKAGE EX-GWF-CSUB-P04 CONNECTED TO MODEL EX-GWF-CSUB-P04  PACKAGE CHD_0            ON UNIT   1020 AT TIME STEP     28, STRESS PERIOD      2

 HEAD WILL BE SAVED ON UNIT 1021 AT END OF TIME STEP   28, STRESS PERIOD    2


  VOLUME BUDGET FOR ENTIRE MODEL AT END OF TIME STEP   28, STRESS PERIOD   2
  ---------------------------------------------------------------------------------------------------

     CUMULATIVE VOLUME      L**3       RATES FOR THIS TIME STEP      L**3/T          PACKAGE NAME    
     ------------------                 ------------------------                     ----------------

           IN:                                      IN:
           ---                                      ---
              STO-SS =           0.0000                STO-SS =           0.0000     STORAGE                          
              STO-SY =  1436807504.5123                STO-SY =      138065.6399     STORAGE                          
      CSUB-CGELASTIC =     3437702.7181        CSUB-CGELASTIC =         315.1768     CSUB                             
        CSUB-ELASTIC =    10729988.6185          CSUB-ELASTIC =         977.0700     CSUB                             
      CSUB-INELASTIC =     2217658.0632        CSUB-INELASTIC =         133.4062     CSUB                             
      CSUB-WATERCOMP =     5296375.0335        CSUB-WATERCOMP =         491.4365     CSUB                             
                 WEL =           0.0000                   WEL =           0.0000     WEL_0                            
                 RCH =   404989200.0000                   RCH =       39600.0000     RCH_0                            
                 CHD =           0.0000                   CHD =           0.0000     CHD_0                            

            TOTAL IN =  1863478428.9456              TOTAL IN =      179582.7295

          OUT:                                     OUT:
          ----                                     ----
              STO-SS =           0.0000                STO-SS =           0.0000     STORAGE                          
              STO-SY =           0.0000                STO-SY =           0.0000     STORAGE                          
      CSUB-CGELASTIC =     3138825.5933        CSUB-CGELASTIC =         305.7899     CSUB                             
        CSUB-ELASTIC =           0.0000          CSUB-ELASTIC =           0.0000     CSUB                             
      CSUB-INELASTIC =           0.0000        CSUB-INELASTIC =           0.0000     CSUB                             
      CSUB-WATERCOMP =           0.0000        CSUB-WATERCOMP =           0.0000     CSUB                             
                 WEL =  1472688000.0000                   WEL =      144000.0000     WEL_0                            
                 RCH =           0.0000                   RCH =           0.0000     RCH_0                            
                 CHD =   387651603.3505                   CHD =       35276.9396     CHD_0                            

           TOTAL OUT =  1863478428.9438             TOTAL OUT =      179582.7295

            IN - OUT =       1.8215E-03              IN - OUT =       6.5076E-08

 PERCENT DISCREPANCY =           0.00     PERCENT DISCREPANCY =           0.00




         TIME SUMMARY AT END OF TIME STEP   28 IN STRESS PERIOD    2
                    SECONDS     MINUTES      HOURS       DAYS        YEARS
                    -----------------------------------------------------------
   TIME STEP LENGTH 3.15576E+07 5.25960E+05  8766.0      365.25      1.0000    
 STRESS PERIOD TIME 8.83613E+08 1.47269E+07 2.45448E+05  10227.      28.000    
         TOTAL TIME 8.83613E+08 1.47269E+07 2.45448E+05  10227.      28.000    


end timestep


start timestep kper="2" kstp="29" mode="normal"

 UBDSV1 SAVING           STO-SS ON UNIT   1020 AT TIME STEP     29, STRESS PERIOD      2
 UBDSV1 SAVING           STO-SY ON UNIT   1020 AT TIME STEP     29, STRESS PERIOD      2
 UBDSV1 SAVING     FLOW-JA-FACE ON UNIT   1020 AT TIME STEP     29, STRESS PERIOD      2
 UBDSV06 SAVING       DATA-SPDIS IN MODEL EX-GWF-CSUB-P04  PACKAGE NPF             CONNECTED TO MODEL EX-GWF-CSUB-P04  PACKAGE NPF              ON UNIT   1020 AT TIME STEP     29, STRESS PERIOD      2
 UBDSV1 SAVING  CSUB-CGELASTIC  ON UNIT   1020 AT TIME STEP     29, STRESS PERIOD      2
 UBDSV06 SAVING    CSUB-ELASTIC  IN MODEL EX-GWF-CSUB-P04  PACKAGE EX-GWF-CSUB-P04 CONNECTED TO MODEL EX-GWF-CSUB-P04  PACKAGE CSUB             ON UNIT   1020 AT TIME STEP     29, STRESS PERIOD      2
 UBDSV06 SAVING  CSUB-INELASTIC  IN MODEL EX-GWF-CSUB-P04  PACKAGE EX-GWF-CSUB-P04 CONNECTED TO MODEL EX-GWF-CSUB-P04  PACKAGE CSUB             ON UNIT   1020 AT TIME STEP     29, STRESS PERIOD      2
 UBDSV1 SAVING  CSUB-WATERCOMP  ON UNIT   1020 AT TIME STEP     29, STRESS PERIOD      2
 UBDSV06 SAVING              WEL IN MODEL EX-GWF-CSUB-P04  PACKAGE EX-GWF-CSUB-P04 CONNECTED TO MODEL EX-GWF-CSUB-P04  PACKAGE WEL_0            ON UNIT   1020 AT TIME STEP     29, STRESS PERIOD      2
 UBDSV06 SAVING              RCH IN MODEL EX-GWF-CSUB-P04  PACKAGE EX-GWF-CSUB-P04 CONNECTED TO MODEL EX-GWF-CSUB-P04  PACKAGE RCH_0            ON UNIT   1020 AT TIME STEP     29, STRESS PERIOD      2
 UBDSV06 SAVING              CHD IN MODEL EX-GWF-CSUB-P04  PACKAGE EX-GWF-CSUB-P04 CONNECTED TO MODEL EX-GWF-CSUB-P04  PACKAGE CHD_0            ON UNIT   1020 AT TIME STEP     29, STRESS PERIOD      2

 HEAD WILL BE SAVED ON UNIT 1021 AT END OF TIME STEP   29, STRESS PERIOD    2


  VOLUME BUDGET FOR ENTIRE MODEL AT END OF TIME STEP   29, STRESS PERIOD   2
  ---------------------------------------------------------------------------------------------------

     CUMULATIVE VOLUME      L**3       RATES FOR THIS TIME STEP      L**3/T          PACKAGE NAME    
     ------------------                 ------------------------                     ----------------

           IN:                                      IN:
           ---                                      ---
              STO-SS =           0.0000                STO-SS =           0.0000     STORAGE                          
              STO-SY =  1487151234.3734                STO-SY =      137833.6204     STORAGE                          
      CSUB-CGELASTIC =     3552573.2828        CSUB-CGELASTIC =         314.4985     CSUB                             
        CSUB-ELASTIC =    11085300.8388          CSUB-ELASTIC =         972.7918     CSUB                             
      CSUB-INELASTIC =     2265497.4905        CSUB-INELASTIC =         130.9772     CSUB                             
      CSUB-WATERCOMP =     5475472.6026        CSUB-WATERCOMP =         490.3424     CSUB                             
                 WEL =           0.0000                   WEL =           0.0000     WEL_0                            
                 RCH =   419453100.0000                   RCH =       39600.0000     RCH_0                            
                 CHD =           0.0000                   CHD =           0.0000     CHD_0                            

            TOTAL IN =  1928983178.5880              TOTAL IN =      179342.2304

          OUT:                                     OUT:
          ----                                     ----
              STO-SS =           0.0000                STO-SS =           0.0000     STORAGE                          
              STO-SY =           0.0000                STO-SY =           0.0000     STORAGE                          
      CSUB-CGELASTIC =     3250437.9458        CSUB-CGELASTIC =         305.5780     CSUB                             
        CSUB-ELASTIC =           0.0000          CSUB-ELASTIC =           0.0000     CSUB                             
      CSUB-INELASTIC =           0.0000        CSUB-INELASTIC =           0.0000     CSUB                             
      CSUB-WATERCOMP =           0.0000        CSUB-WATERCOMP =           0.0000     CSUB                             
                 WEL =  1525284000.0000                   WEL =      144000.0000     WEL_0                            
                 RCH =           0.0000                   RCH =           0.0000     RCH_0                            
                 CHD =   400448740.6404                   CHD =       35036.6524     CHD_0                            

           TOTAL OUT =  1928983178.5862             TOTAL OUT =      179342.2304

            IN - OUT =       1.8566E-03              IN - OUT =       9.6392E-08

 PERCENT DISCREPANCY =           0.00     PERCENT DISCREPANCY =           0.00




         TIME SUMMARY AT END OF TIME STEP   29 IN STRESS PERIOD    2
                    SECONDS     MINUTES      HOURS       DAYS        YEARS
                    -----------------------------------------------------------
   TIME STEP LENGTH 3.15576E+07 5.25960E+05  8766.0      365.25      1.0000    
 STRESS PERIOD TIME 9.15170E+08 1.52528E+07 2.54214E+05  10592.      29.000    
         TOTAL TIME 9.15170E+08 1.52528E+07 2.54214E+05  10592.      29.000    


end timestep


start timestep kper="2" kstp="30" mode="normal"

 UBDSV1 SAVING           STO-SS ON UNIT   1020 AT TIME STEP     30, STRESS PERIOD      2
 UBDSV1 SAVING           STO-SY ON UNIT   1020 AT TIME STEP     30, STRESS PERIOD      2
 UBDSV1 SAVING     FLOW-JA-FACE ON UNIT   1020 AT TIME STEP     30, STRESS PERIOD      2
 UBDSV06 SAVING       DATA-SPDIS IN MODEL EX-GWF-CSUB-P04  PACKAGE NPF             CONNECTED TO MODEL EX-GWF-CSUB-P04  PACKAGE NPF              ON UNIT   1020 AT TIME STEP     30, STRESS PERIOD      2
 UBDSV1 SAVING  CSUB-CGELASTIC  ON UNIT   1020 AT TIME STEP     30, STRESS PERIOD      2
 UBDSV06 SAVING    CSUB-ELASTIC  IN MODEL EX-GWF-CSUB-P04  PACKAGE EX-GWF-CSUB-P04 CONNECTED TO MODEL EX-GWF-CSUB-P04  PACKAGE CSUB             ON UNIT   1020 AT TIME STEP     30, STRESS PERIOD      2
 UBDSV06 SAVING  CSUB-INELASTIC  IN MODEL EX-GWF-CSUB-P04  PACKAGE EX-GWF-CSUB-P04 CONNECTED TO MODEL EX-GWF-CSUB-P04  PACKAGE CSUB             ON UNIT   1020 AT TIME STEP     30, STRESS PERIOD      2
 UBDSV1 SAVING  CSUB-WATERCOMP  ON UNIT   1020 AT TIME STEP     30, STRESS PERIOD      2
 UBDSV06 SAVING              WEL IN MODEL EX-GWF-CSUB-P04  PACKAGE EX-GWF-CSUB-P04 CONNECTED TO MODEL EX-GWF-CSUB-P04  PACKAGE WEL_0            ON UNIT   1020 AT TIME STEP     30, STRESS PERIOD      2
 UBDSV06 SAVING              RCH IN MODEL EX-GWF-CSUB-P04  PACKAGE EX-GWF-CSUB-P04 CONNECTED TO MODEL EX-GWF-CSUB-P04  PACKAGE RCH_0            ON UNIT   1020 AT TIME STEP     30, STRESS PERIOD      2
 UBDSV06 SAVING              CHD IN MODEL EX-GWF-CSUB-P04  PACKAGE EX-GWF-CSUB-P04 CONNECTED TO MODEL EX-GWF-CSUB-P04  PACKAGE CHD_0            ON UNIT   1020 AT TIME STEP     30, STRESS PERIOD      2

 HEAD WILL BE SAVED ON UNIT 1021 AT END OF TIME STEP   30, STRESS PERIOD    2


  VOLUME BUDGET FOR ENTIRE MODEL AT END OF TIME STEP   30, STRESS PERIOD   2
  ---------------------------------------------------------------------------------------------------

     CUMULATIVE VOLUME      L**3       RATES FOR THIS TIME STEP      L**3/T          PACKAGE NAME    
     ------------------                 ------------------------                     ----------------

           IN:                                      IN:
           ---                                      ---
              STO-SS =           0.0000                STO-SS =           0.0000     STORAGE                          
              STO-SY =  1537409507.0920                STO-SY =      137599.6515     STORAGE                          
      CSUB-CGELASTIC =     3667194.4201        CSUB-CGELASTIC =         313.8156     CSUB                             
        CSUB-ELASTIC =    11439040.2951          CSUB-ELASTIC =         968.4858     CSUB                             
      CSUB-INELASTIC =     2312517.5591        CSUB-INELASTIC =         128.7339     CSUB                             
      CSUB-WATERCOMP =     5654167.7410        CSUB-WATERCOMP =         489.2406     CSUB                             
                 WEL =           0.0000                   WEL =           0.0000     WEL_0                            
                 RCH =   433917000.0000                   RCH =       39600.0000     RCH_0                            
                 CHD =           0.0000                   CHD =           0.0000     CHD_0                            

            TOTAL IN =  1994399427.1073              TOTAL IN =      179099.9275

          OUT:                                     OUT:
          ----                                     ----
              STO-SS =           0.0000                STO-SS =           0.0000     STORAGE                          
              STO-SY =           0.0000                STO-SY =           0.0000     STORAGE                          
      CSUB-CGELASTIC =     3361971.5772        CSUB-CGELASTIC =         305.3624     CSUB                             
        CSUB-ELASTIC =           0.0000          CSUB-ELASTIC =           0.0000     CSUB                             
      CSUB-INELASTIC =           0.0000        CSUB-INELASTIC =           0.0000     CSUB                             
      CSUB-WATERCOMP =           0.0000        CSUB-WATERCOMP =           0.0000     CSUB                             
                 WEL =  1577880000.0000                   WEL =      144000.0000     WEL_0                            
                 RCH =           0.0000                   RCH =           0.0000     RCH_0                            
                 CHD =   413157455.5283                   CHD =       34794.5651     CHD_0                            

           TOTAL OUT =  1994399427.1055             TOTAL OUT =      179099.9275

            IN - OUT =       1.8282E-03              IN - OUT =      -7.8580E-08

 PERCENT DISCREPANCY =           0.00     PERCENT DISCREPANCY =          -0.00




         TIME SUMMARY AT END OF TIME STEP   30 IN STRESS PERIOD    2
                    SECONDS     MINUTES      HOURS       DAYS        YEARS
                    -----------------------------------------------------------
   TIME STEP LENGTH 3.15576E+07 5.25960E+05  8766.0      365.25      1.0000    
 STRESS PERIOD TIME 9.46728E+08 1.57788E+07 2.62980E+05  10958.      30.000    
         TOTAL TIME 9.46728E+08 1.57788E+07 2.62980E+05  10958.      30.000    


end timestep


start timestep kper="2" kstp="31" mode="normal"

 UBDSV1 SAVING           STO-SS ON UNIT   1020 AT TIME STEP     31, STRESS PERIOD      2
 UBDSV1 SAVING           STO-SY ON UNIT   1020 AT TIME STEP     31, STRESS PERIOD      2
 UBDSV1 SAVING     FLOW-JA-FACE ON UNIT   1020 AT TIME STEP     31, STRESS PERIOD      2
 UBDSV06 SAVING       DATA-SPDIS IN MODEL EX-GWF-CSUB-P04  PACKAGE NPF             CONNECTED TO MODEL EX-GWF-CSUB-P04  PACKAGE NPF              ON UNIT   1020 AT TIME STEP     31, STRESS PERIOD      2
 UBDSV1 SAVING  CSUB-CGELASTIC  ON UNIT   1020 AT TIME STEP     31, STRESS PERIOD      2
 UBDSV06 SAVING    CSUB-ELASTIC  IN MODEL EX-GWF-CSUB-P04  PACKAGE EX-GWF-CSUB-P04 CONNECTED TO MODEL EX-GWF-CSUB-P04  PACKAGE CSUB             ON UNIT   1020 AT TIME STEP     31, STRESS PERIOD      2
 UBDSV06 SAVING  CSUB-INELASTIC  IN MODEL EX-GWF-CSUB-P04  PACKAGE EX-GWF-CSUB-P04 CONNECTED TO MODEL EX-GWF-CSUB-P04  PACKAGE CSUB             ON UNIT   1020 AT TIME STEP     31, STRESS PERIOD      2
 UBDSV1 SAVING  CSUB-WATERCOMP  ON UNIT   1020 AT TIME STEP     31, STRESS PERIOD      2
 UBDSV06 SAVING              WEL IN MODEL EX-GWF-CSUB-P04  PACKAGE EX-GWF-CSUB-P04 CONNECTED TO MODEL EX-GWF-CSUB-P04  PACKAGE WEL_0            ON UNIT   1020 AT TIME STEP     31, STRESS PERIOD      2
 UBDSV06 SAVING              RCH IN MODEL EX-GWF-CSUB-P04  PACKAGE EX-GWF-CSUB-P04 CONNECTED TO MODEL EX-GWF-CSUB-P04  PACKAGE RCH_0            ON UNIT   1020 AT TIME STEP     31, STRESS PERIOD      2
 UBDSV06 SAVING              CHD IN MODEL EX-GWF-CSUB-P04  PACKAGE EX-GWF-CSUB-P04 CONNECTED TO MODEL EX-GWF-CSUB-P04  PACKAGE CHD_0            ON UNIT   1020 AT TIME STEP     31, STRESS PERIOD      2

 HEAD WILL BE SAVED ON UNIT 1021 AT END OF TIME STEP   31, STRESS PERIOD    2


  VOLUME BUDGET FOR ENTIRE MODEL AT END OF TIME STEP   31, STRESS PERIOD   2
  ---------------------------------------------------------------------------------------------------

     CUMULATIVE VOLUME      L**3       RATES FOR THIS TIME STEP      L**3/T          PACKAGE NAME    
     ------------------                 ------------------------                     ----------------

           IN:                                      IN:
           ---                                      ---
              STO-SS =           0.0000                STO-SS =           0.0000     STORAGE                          
              STO-SY =  1587581700.8011                STO-SY =      137363.9800     STORAGE                          
      CSUB-CGELASTIC =     3781564.7078        CSUB-CGELASTIC =         313.1288     CSUB                             
        CSUB-ELASTIC =    11791198.6100          CSUB-ELASTIC =         964.1569     CSUB                             
      CSUB-INELASTIC =     2358779.9978        CSUB-INELASTIC =         126.6597     CSUB                             
      CSUB-WATERCOMP =     5832458.0161        CSUB-WATERCOMP =         488.1322     CSUB                             
                 WEL =           0.0000                   WEL =           0.0000     WEL_0                            
                 RCH =   448380900.0000                   RCH =       39600.0000     RCH_0                            
                 CHD =           0.0000                   CHD =           0.0000     CHD_0                            

            TOTAL IN =  2059726602.1326              TOTAL IN =      178856.0576

          OUT:                                     OUT:
          ----                                     ----
              STO-SS =           0.0000                STO-SS =           0.0000     STORAGE                          
              STO-SY =           0.0000                STO-SY =           0.0000     STORAGE                          
      CSUB-CGELASTIC =     3473425.2760        CSUB-CGELASTIC =         305.1436     CSUB                             
        CSUB-ELASTIC =           0.0000          CSUB-ELASTIC =           0.0000     CSUB                             
      CSUB-INELASTIC =           0.0000        CSUB-INELASTIC =           0.0000     CSUB                             
      CSUB-WATERCOMP =           0.0000        CSUB-WATERCOMP =           0.0000     CSUB                             
                 WEL =  1630476000.0000                   WEL =      144000.0000     WEL_0                            
                 RCH =           0.0000                   RCH =           0.0000     RCH_0                            
                 CHD =   425777176.8548                   CHD =       34550.9140     CHD_0                            

           TOTAL OUT =  2059726602.1308             TOTAL OUT =      178856.0576

            IN - OUT =       1.8013E-03              IN - OUT =      -7.2905E-08

 PERCENT DISCREPANCY =           0.00     PERCENT DISCREPANCY =          -0.00




         TIME SUMMARY AT END OF TIME STEP   31 IN STRESS PERIOD    2
                    SECONDS     MINUTES      HOURS       DAYS        YEARS
                    -----------------------------------------------------------
   TIME STEP LENGTH 3.15576E+07 5.25960E+05  8766.0      365.25      1.0000    
 STRESS PERIOD TIME 9.78286E+08 1.63048E+07 2.71746E+05  11323.      31.000    
         TOTAL TIME 9.78286E+08 1.63048E+07 2.71746E+05  11323.      31.000    


end timestep


start timestep kper="2" kstp="32" mode="normal"

 UBDSV1 SAVING           STO-SS ON UNIT   1020 AT TIME STEP     32, STRESS PERIOD      2
 UBDSV1 SAVING           STO-SY ON UNIT   1020 AT TIME STEP     32, STRESS PERIOD      2
 UBDSV1 SAVING     FLOW-JA-FACE ON UNIT   1020 AT TIME STEP     32, STRESS PERIOD      2
 UBDSV06 SAVING       DATA-SPDIS IN MODEL EX-GWF-CSUB-P04  PACKAGE NPF             CONNECTED TO MODEL EX-GWF-CSUB-P04  PACKAGE NPF              ON UNIT   1020 AT TIME STEP     32, STRESS PERIOD      2
 UBDSV1 SAVING  CSUB-CGELASTIC  ON UNIT   1020 AT TIME STEP     32, STRESS PERIOD      2
 UBDSV06 SAVING    CSUB-ELASTIC  IN MODEL EX-GWF-CSUB-P04  PACKAGE EX-GWF-CSUB-P04 CONNECTED TO MODEL EX-GWF-CSUB-P04  PACKAGE CSUB             ON UNIT   1020 AT TIME STEP     32, STRESS PERIOD      2
 UBDSV06 SAVING  CSUB-INELASTIC  IN MODEL EX-GWF-CSUB-P04  PACKAGE EX-GWF-CSUB-P04 CONNECTED TO MODEL EX-GWF-CSUB-P04  PACKAGE CSUB             ON UNIT   1020 AT TIME STEP     32, STRESS PERIOD      2
 UBDSV1 SAVING  CSUB-WATERCOMP  ON UNIT   1020 AT TIME STEP     32, STRESS PERIOD      2
 UBDSV06 SAVING              WEL IN MODEL EX-GWF-CSUB-P04  PACKAGE EX-GWF-CSUB-P04 CONNECTED TO MODEL EX-GWF-CSUB-P04  PACKAGE WEL_0            ON UNIT   1020 AT TIME STEP     32, STRESS PERIOD      2
 UBDSV06 SAVING              RCH IN MODEL EX-GWF-CSUB-P04  PACKAGE EX-GWF-CSUB-P04 CONNECTED TO MODEL EX-GWF-CSUB-P04  PACKAGE RCH_0            ON UNIT   1020 AT TIME STEP     32, STRESS PERIOD      2
 UBDSV06 SAVING              CHD IN MODEL EX-GWF-CSUB-P04  PACKAGE EX-GWF-CSUB-P04 CONNECTED TO MODEL EX-GWF-CSUB-P04  PACKAGE CHD_0            ON UNIT   1020 AT TIME STEP     32, STRESS PERIOD      2

 HEAD WILL BE SAVED ON UNIT 1021 AT END OF TIME STEP   32, STRESS PERIOD    2


  VOLUME BUDGET FOR ENTIRE MODEL AT END OF TIME STEP   32, STRESS PERIOD   2
  ---------------------------------------------------------------------------------------------------

     CUMULATIVE VOLUME      L**3       RATES FOR THIS TIME STEP      L**3/T          PACKAGE NAME    
     ------------------                 ------------------------                     ----------------

           IN:                                      IN:
           ---                                      ---
              STO-SS =           0.0000                STO-SS =           0.0000     STORAGE                          
              STO-SY =  1637667276.7874                STO-SY =      137126.8336     STORAGE                          
      CSUB-CGELASTIC =     3895682.9357        CSUB-CGELASTIC =         312.4387     CSUB                             
        CSUB-ELASTIC =    12141769.0918          CSUB-ELASTIC =         959.8097     CSUB                             
      CSUB-INELASTIC =     2404340.6673        CSUB-INELASTIC =         124.7383     CSUB                             
      CSUB-WATERCOMP =     6010341.3381        CSUB-WATERCOMP =         487.0180     CSUB                             
                 WEL =           0.0000                   WEL =           0.0000     WEL_0                            
                 RCH =   462844800.0000                   RCH =       39600.0000     RCH_0                            
                 CHD =           0.0000                   CHD =           0.0000     CHD_0                            

            TOTAL IN =  2124964210.8203              TOTAL IN =      178610.8383

          OUT:                                     OUT:
          ----                                     ----
              STO-SS =           0.0000                STO-SS =           0.0000     STORAGE                          
              STO-SY =           0.0000                STO-SY =           0.0000     STORAGE                          
      CSUB-CGELASTIC =     3584797.9236        CSUB-CGELASTIC =         304.9217     CSUB                             
        CSUB-ELASTIC =           0.0000          CSUB-ELASTIC =           0.0000     CSUB                             
      CSUB-INELASTIC =           0.0000        CSUB-INELASTIC =           0.0000     CSUB                             
      CSUB-WATERCOMP =           0.0000        CSUB-WATERCOMP =           0.0000     CSUB                             
                 WEL =  1683072000.0000                   WEL =      144000.0000     WEL_0                            
                 RCH =           0.0000                   RCH =           0.0000     RCH_0                            
                 CHD =   438307412.8949                   CHD =       34305.9166     CHD_0                            

           TOTAL OUT =  2124964210.8185             TOTAL OUT =      178610.8383

            IN - OUT =       1.8384E-03              IN - OUT =       1.0210E-07

 PERCENT DISCREPANCY =           0.00     PERCENT DISCREPANCY =           0.00




         TIME SUMMARY AT END OF TIME STEP   32 IN STRESS PERIOD    2
                    SECONDS     MINUTES      HOURS       DAYS        YEARS
                    -----------------------------------------------------------
   TIME STEP LENGTH 3.15576E+07 5.25960E+05  8766.0      365.25      1.0000    
 STRESS PERIOD TIME 1.00984E+09 1.68307E+07 2.80512E+05  11688.      32.000    
         TOTAL TIME 1.00984E+09 1.68307E+07 2.80512E+05  11688.      32.000    


end timestep


start timestep kper="2" kstp="33" mode="normal"

 UBDSV1 SAVING           STO-SS ON UNIT   1020 AT TIME STEP     33, STRESS PERIOD      2
 UBDSV1 SAVING           STO-SY ON UNIT   1020 AT TIME STEP     33, STRESS PERIOD      2
 UBDSV1 SAVING     FLOW-JA-FACE ON UNIT   1020 AT TIME STEP     33, STRESS PERIOD      2
 UBDSV06 SAVING       DATA-SPDIS IN MODEL EX-GWF-CSUB-P04  PACKAGE NPF             CONNECTED TO MODEL EX-GWF-CSUB-P04  PACKAGE NPF              ON UNIT   1020 AT TIME STEP     33, STRESS PERIOD      2
 UBDSV1 SAVING  CSUB-CGELASTIC  ON UNIT   1020 AT TIME STEP     33, STRESS PERIOD      2
 UBDSV06 SAVING    CSUB-ELASTIC  IN MODEL EX-GWF-CSUB-P04  PACKAGE EX-GWF-CSUB-P04 CONNECTED TO MODEL EX-GWF-CSUB-P04  PACKAGE CSUB             ON UNIT   1020 AT TIME STEP     33, STRESS PERIOD      2
 UBDSV06 SAVING  CSUB-INELASTIC  IN MODEL EX-GWF-CSUB-P04  PACKAGE EX-GWF-CSUB-P04 CONNECTED TO MODEL EX-GWF-CSUB-P04  PACKAGE CSUB             ON UNIT   1020 AT TIME STEP     33, STRESS PERIOD      2
 UBDSV1 SAVING  CSUB-WATERCOMP  ON UNIT   1020 AT TIME STEP     33, STRESS PERIOD      2
 UBDSV06 SAVING              WEL IN MODEL EX-GWF-CSUB-P04  PACKAGE EX-GWF-CSUB-P04 CONNECTED TO MODEL EX-GWF-CSUB-P04  PACKAGE WEL_0            ON UNIT   1020 AT TIME STEP     33, STRESS PERIOD      2
 UBDSV06 SAVING              RCH IN MODEL EX-GWF-CSUB-P04  PACKAGE EX-GWF-CSUB-P04 CONNECTED TO MODEL EX-GWF-CSUB-P04  PACKAGE RCH_0            ON UNIT   1020 AT TIME STEP     33, STRESS PERIOD      2
 UBDSV06 SAVING              CHD IN MODEL EX-GWF-CSUB-P04  PACKAGE EX-GWF-CSUB-P04 CONNECTED TO MODEL EX-GWF-CSUB-P04  PACKAGE CHD_0            ON UNIT   1020 AT TIME STEP     33, STRESS PERIOD      2

 HEAD WILL BE SAVED ON UNIT 1021 AT END OF TIME STEP   33, STRESS PERIOD    2


  VOLUME BUDGET FOR ENTIRE MODEL AT END OF TIME STEP   33, STRESS PERIOD   2
  ---------------------------------------------------------------------------------------------------

     CUMULATIVE VOLUME      L**3       RATES FOR THIS TIME STEP      L**3/T          PACKAGE NAME    
     ------------------                 ------------------------                     ----------------

           IN:                                      IN:
           ---                                      ---
              STO-SS =           0.0000                STO-SS =           0.0000     STORAGE                          
              STO-SY =  1687665090.5385                STO-SY =      136886.5537     STORAGE                          
      CSUB-CGELASTIC =     4009542.9993        CSUB-CGELASTIC =         311.7319     CSUB                             
        CSUB-ELASTIC =    12490706.4796          CSUB-ELASTIC =         955.3385     CSUB                             
      CSUB-INELASTIC =     2449981.9530        CSUB-INELASTIC =         124.9590     CSUB                             
      CSUB-WATERCOMP =     6187810.1042        CSUB-WATERCOMP =         485.8830     CSUB                             
                 WEL =           0.0000                   WEL =           0.0000     WEL_0                            
                 RCH =   477308700.0000                   RCH =       39600.0000     RCH_0                            
                 CHD =           0.0000                   CHD =           0.0000     CHD_0                            

            TOTAL IN =  2190111832.0747              TOTAL IN =      178364.4661

          OUT:                                     OUT:
          ----                                     ----
              STO-SS =           0.0000                STO-SS =           0.0000     STORAGE                          
              STO-SY =           0.0000                STO-SY =           0.0000     STORAGE                          
      CSUB-CGELASTIC =     3696086.9089        CSUB-CGELASTIC =         304.6926     CSUB                             
        CSUB-ELASTIC =           0.0000          CSUB-ELASTIC =           0.0000     CSUB                             
      CSUB-INELASTIC =           0.0000        CSUB-INELASTIC =           0.0000     CSUB                             
      CSUB-WATERCOMP =           0.0000        CSUB-WATERCOMP =           0.0000     CSUB                             
                 WEL =  1735668000.0000                   WEL =      144000.0000     WEL_0                            
                 RCH =           0.0000                   RCH =           0.0000     RCH_0                            
                 CHD =   450747745.1639                   CHD =       34059.7735     CHD_0                            

           TOTAL OUT =  2190111832.0728             TOTAL OUT =      178364.4661

            IN - OUT =       1.8835E-03              IN - OUT =       1.2227E-07

 PERCENT DISCREPANCY =           0.00     PERCENT DISCREPANCY =           0.00




         TIME SUMMARY AT END OF TIME STEP   33 IN STRESS PERIOD    2
                    SECONDS     MINUTES      HOURS       DAYS        YEARS
                    -----------------------------------------------------------
   TIME STEP LENGTH 3.15576E+07 5.25960E+05  8766.0      365.25      1.0000    
 STRESS PERIOD TIME 1.04140E+09 1.73567E+07 2.89278E+05  12053.      33.000    
         TOTAL TIME 1.04140E+09 1.73567E+07 2.89278E+05  12053.      33.000    


end timestep


start timestep kper="2" kstp="34" mode="normal"

 UBDSV1 SAVING           STO-SS ON UNIT   1020 AT TIME STEP     34, STRESS PERIOD      2
 UBDSV1 SAVING           STO-SY ON UNIT   1020 AT TIME STEP     34, STRESS PERIOD      2
 UBDSV1 SAVING     FLOW-JA-FACE ON UNIT   1020 AT TIME STEP     34, STRESS PERIOD      2
 UBDSV06 SAVING       DATA-SPDIS IN MODEL EX-GWF-CSUB-P04  PACKAGE NPF             CONNECTED TO MODEL EX-GWF-CSUB-P04  PACKAGE NPF              ON UNIT   1020 AT TIME STEP     34, STRESS PERIOD      2
 UBDSV1 SAVING  CSUB-CGELASTIC  ON UNIT   1020 AT TIME STEP     34, STRESS PERIOD      2
 UBDSV06 SAVING    CSUB-ELASTIC  IN MODEL EX-GWF-CSUB-P04  PACKAGE EX-GWF-CSUB-P04 CONNECTED TO MODEL EX-GWF-CSUB-P04  PACKAGE CSUB             ON UNIT   1020 AT TIME STEP     34, STRESS PERIOD      2
 UBDSV06 SAVING  CSUB-INELASTIC  IN MODEL EX-GWF-CSUB-P04  PACKAGE EX-GWF-CSUB-P04 CONNECTED TO MODEL EX-GWF-CSUB-P04  PACKAGE CSUB             ON UNIT   1020 AT TIME STEP     34, STRESS PERIOD      2
 UBDSV1 SAVING  CSUB-WATERCOMP  ON UNIT   1020 AT TIME STEP     34, STRESS PERIOD      2
 UBDSV06 SAVING              WEL IN MODEL EX-GWF-CSUB-P04  PACKAGE EX-GWF-CSUB-P04 CONNECTED TO MODEL EX-GWF-CSUB-P04  PACKAGE WEL_0            ON UNIT   1020 AT TIME STEP     34, STRESS PERIOD      2
 UBDSV06 SAVING              RCH IN MODEL EX-GWF-CSUB-P04  PACKAGE EX-GWF-CSUB-P04 CONNECTED TO MODEL EX-GWF-CSUB-P04  PACKAGE RCH_0            ON UNIT   1020 AT TIME STEP     34, STRESS PERIOD      2
 UBDSV06 SAVING              CHD IN MODEL EX-GWF-CSUB-P04  PACKAGE EX-GWF-CSUB-P04 CONNECTED TO MODEL EX-GWF-CSUB-P04  PACKAGE CHD_0            ON UNIT   1020 AT TIME STEP     34, STRESS PERIOD      2

 HEAD WILL BE SAVED ON UNIT 1021 AT END OF TIME STEP   34, STRESS PERIOD    2


  VOLUME BUDGET FOR ENTIRE MODEL AT END OF TIME STEP   34, STRESS PERIOD   2
  ---------------------------------------------------------------------------------------------------

     CUMULATIVE VOLUME      L**3       RATES FOR THIS TIME STEP      L**3/T          PACKAGE NAME    
     ------------------                 ------------------------                     ----------------

           IN:                                      IN:
           ---                                      ---
              STO-SS =           0.0000                STO-SS =           0.0000     STORAGE                          
              STO-SY =  1737562077.7595                STO-SY =      136610.5057     STORAGE                          
      CSUB-CGELASTIC =     4123053.1235        CSUB-CGELASTIC =         310.7738     CSUB                             
        CSUB-ELASTIC =    12837269.1611          CSUB-ELASTIC =         948.8369     CSUB                             
      CSUB-INELASTIC =     2509329.7148        CSUB-INELASTIC =         162.4853     CSUB                             
      CSUB-WATERCOMP =     6364758.3785        CSUB-WATERCOMP =         484.4580     CSUB                             
                 WEL =           0.0000                   WEL =           0.0000     WEL_0                            
                 RCH =   491772600.0000                   RCH =       39600.0000     RCH_0                            
                 CHD =           0.0000                   CHD =           0.0000     CHD_0                            

            TOTAL IN =  2255169088.1374              TOTAL IN =      178117.0597

          OUT:                                     OUT:
          ----                                     ----
              STO-SS =           0.0000                STO-SS =           0.0000     STORAGE                          
              STO-SY =           0.0000                STO-SY =           0.0000     STORAGE                          
      CSUB-CGELASTIC =     3807261.9784        CSUB-CGELASTIC =         304.3808     CSUB                             
        CSUB-ELASTIC =           0.0000          CSUB-ELASTIC =           0.0000     CSUB                             
      CSUB-INELASTIC =           0.0000        CSUB-INELASTIC =           0.0000     CSUB                             
      CSUB-WATERCOMP =           0.0000        CSUB-WATERCOMP =           0.0000     CSUB                             
                 WEL =  1788264000.0000                   WEL =      144000.0000     WEL_0                            
                 RCH =           0.0000                   RCH =           0.0000     RCH_0                            
                 CHD =   463097826.1571                   CHD =       33812.6790     CHD_0                            

           TOTAL OUT =  2255169088.1355             TOTAL OUT =      178117.0597

            IN - OUT =       1.8854E-03              IN - OUT =       5.4715E-09

 PERCENT DISCREPANCY =           0.00     PERCENT DISCREPANCY =           0.00




         TIME SUMMARY AT END OF TIME STEP   34 IN STRESS PERIOD    2
                    SECONDS     MINUTES      HOURS       DAYS        YEARS
                    -----------------------------------------------------------
   TIME STEP LENGTH 3.15576E+07 5.25960E+05  8766.0      365.25      1.0000    
 STRESS PERIOD TIME 1.07296E+09 1.78826E+07 2.98044E+05  12418.      34.000    
         TOTAL TIME 1.07296E+09 1.78826E+07 2.98044E+05  12418.      34.000    


end timestep


start timestep kper="2" kstp="35" mode="normal"

 UBDSV1 SAVING           STO-SS ON UNIT   1020 AT TIME STEP     35, STRESS PERIOD      2
 UBDSV1 SAVING           STO-SY ON UNIT   1020 AT TIME STEP     35, STRESS PERIOD      2
 UBDSV1 SAVING     FLOW-JA-FACE ON UNIT   1020 AT TIME STEP     35, STRESS PERIOD      2
 UBDSV06 SAVING       DATA-SPDIS IN MODEL EX-GWF-CSUB-P04  PACKAGE NPF             CONNECTED TO MODEL EX-GWF-CSUB-P04  PACKAGE NPF              ON UNIT   1020 AT TIME STEP     35, STRESS PERIOD      2
 UBDSV1 SAVING  CSUB-CGELASTIC  ON UNIT   1020 AT TIME STEP     35, STRESS PERIOD      2
 UBDSV06 SAVING    CSUB-ELASTIC  IN MODEL EX-GWF-CSUB-P04  PACKAGE EX-GWF-CSUB-P04 CONNECTED TO MODEL EX-GWF-CSUB-P04  PACKAGE CSUB             ON UNIT   1020 AT TIME STEP     35, STRESS PERIOD      2
 UBDSV06 SAVING  CSUB-INELASTIC  IN MODEL EX-GWF-CSUB-P04  PACKAGE EX-GWF-CSUB-P04 CONNECTED TO MODEL EX-GWF-CSUB-P04  PACKAGE CSUB             ON UNIT   1020 AT TIME STEP     35, STRESS PERIOD      2
 UBDSV1 SAVING  CSUB-WATERCOMP  ON UNIT   1020 AT TIME STEP     35, STRESS PERIOD      2
 UBDSV06 SAVING              WEL IN MODEL EX-GWF-CSUB-P04  PACKAGE EX-GWF-CSUB-P04 CONNECTED TO MODEL EX-GWF-CSUB-P04  PACKAGE WEL_0            ON UNIT   1020 AT TIME STEP     35, STRESS PERIOD      2
 UBDSV06 SAVING              RCH IN MODEL EX-GWF-CSUB-P04  PACKAGE EX-GWF-CSUB-P04 CONNECTED TO MODEL EX-GWF-CSUB-P04  PACKAGE RCH_0            ON UNIT   1020 AT TIME STEP     35, STRESS PERIOD      2
 UBDSV06 SAVING              CHD IN MODEL EX-GWF-CSUB-P04  PACKAGE EX-GWF-CSUB-P04 CONNECTED TO MODEL EX-GWF-CSUB-P04  PACKAGE CHD_0            ON UNIT   1020 AT TIME STEP     35, STRESS PERIOD      2

 HEAD WILL BE SAVED ON UNIT 1021 AT END OF TIME STEP   35, STRESS PERIOD    2


  VOLUME BUDGET FOR ENTIRE MODEL AT END OF TIME STEP   35, STRESS PERIOD   2
  ---------------------------------------------------------------------------------------------------

     CUMULATIVE VOLUME      L**3       RATES FOR THIS TIME STEP      L**3/T          PACKAGE NAME    
     ------------------                 ------------------------                     ----------------

           IN:                                      IN:
           ---                                      ---
              STO-SS =           0.0000                STO-SS =           0.0000     STORAGE                          
              STO-SY =  1787370398.2679                STO-SY =      136367.7495     STORAGE                          
      CSUB-CGELASTIC =     4236372.1749        CSUB-CGELASTIC =         310.2507     CSUB                             
        CSUB-ELASTIC =    13182321.5746          CSUB-ELASTIC =         944.7020     CSUB                             
      CSUB-INELASTIC =     2568762.5608        CSUB-INELASTIC =         162.7183     CSUB                             
      CSUB-WATERCOMP =     6541362.7524        CSUB-WATERCOMP =         483.5164     CSUB                             
                 WEL =           0.0000                   WEL =           0.0000     WEL_0                            
                 RCH =   506236500.0000                   RCH =       39600.0000     RCH_0                            
                 CHD =           0.0000                   CHD =           0.0000     CHD_0                            

            TOTAL IN =  2320135717.3305              TOTAL IN =      177868.9369

          OUT:                                     OUT:
          ----                                     ----
              STO-SS =           0.0000                STO-SS =           0.0000     STORAGE                          
              STO-SY =           0.0000                STO-SY =           0.0000     STORAGE                          
      CSUB-CGELASTIC =     3918351.1361        CSUB-CGELASTIC =         304.1455     CSUB                             
        CSUB-ELASTIC =           0.0000          CSUB-ELASTIC =           0.0000     CSUB                             
      CSUB-INELASTIC =           0.0000        CSUB-INELASTIC =           0.0000     CSUB                             
      CSUB-WATERCOMP =           0.0000        CSUB-WATERCOMP =           0.0000     CSUB                             
                 WEL =  1840860000.0000                   WEL =      144000.0000     WEL_0                            
                 RCH =           0.0000                   RCH =           0.0000     RCH_0                            
                 CHD =   475357366.1925                   CHD =       33564.7913     CHD_0                            

           TOTAL OUT =  2320135717.3286             TOTAL OUT =      177868.9369

            IN - OUT =       1.9093E-03              IN - OUT =       6.7492E-08

 PERCENT DISCREPANCY =           0.00     PERCENT DISCREPANCY =           0.00




         TIME SUMMARY AT END OF TIME STEP   35 IN STRESS PERIOD    2
                    SECONDS     MINUTES      HOURS       DAYS        YEARS
                    -----------------------------------------------------------
   TIME STEP LENGTH 3.15576E+07 5.25960E+05  8766.0      365.25      1.0000    
 STRESS PERIOD TIME 1.10452E+09 1.84086E+07 3.06810E+05  12784.      35.000    
         TOTAL TIME 1.10452E+09 1.84086E+07 3.06810E+05  12784.      35.000    


end timestep


start timestep kper="2" kstp="36" mode="normal"

 UBDSV1 SAVING           STO-SS ON UNIT   1020 AT TIME STEP     36, STRESS PERIOD      2
 UBDSV1 SAVING           STO-SY ON UNIT   1020 AT TIME STEP     36, STRESS PERIOD      2
 UBDSV1 SAVING     FLOW-JA-FACE ON UNIT   1020 AT TIME STEP     36, STRESS PERIOD      2
 UBDSV06 SAVING       DATA-SPDIS IN MODEL EX-GWF-CSUB-P04  PACKAGE NPF             CONNECTED TO MODEL EX-GWF-CSUB-P04  PACKAGE NPF              ON UNIT   1020 AT TIME STEP     36, STRESS PERIOD      2
 UBDSV1 SAVING  CSUB-CGELASTIC  ON UNIT   1020 AT TIME STEP     36, STRESS PERIOD      2
 UBDSV06 SAVING    CSUB-ELASTIC  IN MODEL EX-GWF-CSUB-P04  PACKAGE EX-GWF-CSUB-P04 CONNECTED TO MODEL EX-GWF-CSUB-P04  PACKAGE CSUB             ON UNIT   1020 AT TIME STEP     36, STRESS PERIOD      2
 UBDSV06 SAVING  CSUB-INELASTIC  IN MODEL EX-GWF-CSUB-P04  PACKAGE EX-GWF-CSUB-P04 CONNECTED TO MODEL EX-GWF-CSUB-P04  PACKAGE CSUB             ON UNIT   1020 AT TIME STEP     36, STRESS PERIOD      2
 UBDSV1 SAVING  CSUB-WATERCOMP  ON UNIT   1020 AT TIME STEP     36, STRESS PERIOD      2
 UBDSV06 SAVING              WEL IN MODEL EX-GWF-CSUB-P04  PACKAGE EX-GWF-CSUB-P04 CONNECTED TO MODEL EX-GWF-CSUB-P04  PACKAGE WEL_0            ON UNIT   1020 AT TIME STEP     36, STRESS PERIOD      2
 UBDSV06 SAVING              RCH IN MODEL EX-GWF-CSUB-P04  PACKAGE EX-GWF-CSUB-P04 CONNECTED TO MODEL EX-GWF-CSUB-P04  PACKAGE RCH_0            ON UNIT   1020 AT TIME STEP     36, STRESS PERIOD      2
 UBDSV06 SAVING              CHD IN MODEL EX-GWF-CSUB-P04  PACKAGE EX-GWF-CSUB-P04 CONNECTED TO MODEL EX-GWF-CSUB-P04  PACKAGE CHD_0            ON UNIT   1020 AT TIME STEP     36, STRESS PERIOD      2

 HEAD WILL BE SAVED ON UNIT 1021 AT END OF TIME STEP   36, STRESS PERIOD    2


  VOLUME BUDGET FOR ENTIRE MODEL AT END OF TIME STEP   36, STRESS PERIOD   2
  ---------------------------------------------------------------------------------------------------

     CUMULATIVE VOLUME      L**3       RATES FOR THIS TIME STEP      L**3/T          PACKAGE NAME    
     ------------------                 ------------------------                     ----------------

           IN:                                      IN:
           ---                                      ---
              STO-SS =           0.0000                STO-SS =           0.0000     STORAGE                          
              STO-SY =  1837090723.6147                STO-SY =      136126.8319     STORAGE                          
      CSUB-CGELASTIC =     4349440.9562        CSUB-CGELASTIC =         309.5655     CSUB                             
        CSUB-ELASTIC =    13525786.2954          CSUB-ELASTIC =         940.3552     CSUB                             
      CSUB-INELASTIC =     2627578.0593        CSUB-INELASTIC =         161.0281     CSUB                             
      CSUB-WATERCOMP =     6717559.9595        CSUB-WATERCOMP =         482.4017     CSUB                             
                 WEL =           0.0000                   WEL =           0.0000     WEL_0                            
                 RCH =   520700400.0000                   RCH =       39600.0000     RCH_0                            
                 CHD =           0.0000                   CHD =           0.0000     CHD_0                            

            TOTAL IN =  2385011488.8851              TOTAL IN =      177620.1822

          OUT:                                     OUT:
          ----                                     ----
              STO-SS =           0.0000                STO-SS =           0.0000     STORAGE                          
              STO-SY =           0.0000                STO-SY =           0.0000     STORAGE                          
      CSUB-CGELASTIC =     4029355.7204        CSUB-CGELASTIC =         303.9140     CSUB                             
        CSUB-ELASTIC =           0.0000          CSUB-ELASTIC =           0.0000     CSUB                             
      CSUB-INELASTIC =           0.0000        CSUB-INELASTIC =           0.0000     CSUB                             
      CSUB-WATERCOMP =           0.0000        CSUB-WATERCOMP =           0.0000     CSUB                             
                 WEL =  1893456000.0000                   WEL =      144000.0000     WEL_0                            
                 RCH =           0.0000                   RCH =           0.0000     RCH_0                            
                 CHD =   487526133.1628                   CHD =       33316.2682     CHD_0                            

           TOTAL OUT =  2385011488.8832             TOTAL OUT =      177620.1822

            IN - OUT =       1.9159E-03              IN - OUT =       1.6706E-08

 PERCENT DISCREPANCY =           0.00     PERCENT DISCREPANCY =           0.00




         TIME SUMMARY AT END OF TIME STEP   36 IN STRESS PERIOD    2
                    SECONDS     MINUTES      HOURS       DAYS        YEARS
                    -----------------------------------------------------------
   TIME STEP LENGTH 3.15576E+07 5.25960E+05  8766.0      365.25      1.0000    
 STRESS PERIOD TIME 1.13607E+09 1.89346E+07 3.15576E+05  13149.      36.000    
         TOTAL TIME 1.13607E+09 1.89346E+07 3.15576E+05  13149.      36.000    


end timestep


start timestep kper="2" kstp="37" mode="normal"

 UBDSV1 SAVING           STO-SS ON UNIT   1020 AT TIME STEP     37, STRESS PERIOD      2
 UBDSV1 SAVING           STO-SY ON UNIT   1020 AT TIME STEP     37, STRESS PERIOD      2
 UBDSV1 SAVING     FLOW-JA-FACE ON UNIT   1020 AT TIME STEP     37, STRESS PERIOD      2
 UBDSV06 SAVING       DATA-SPDIS IN MODEL EX-GWF-CSUB-P04  PACKAGE NPF             CONNECTED TO MODEL EX-GWF-CSUB-P04  PACKAGE NPF              ON UNIT   1020 AT TIME STEP     37, STRESS PERIOD      2
 UBDSV1 SAVING  CSUB-CGELASTIC  ON UNIT   1020 AT TIME STEP     37, STRESS PERIOD      2
 UBDSV06 SAVING    CSUB-ELASTIC  IN MODEL EX-GWF-CSUB-P04  PACKAGE EX-GWF-CSUB-P04 CONNECTED TO MODEL EX-GWF-CSUB-P04  PACKAGE CSUB             ON UNIT   1020 AT TIME STEP     37, STRESS PERIOD      2
 UBDSV06 SAVING  CSUB-INELASTIC  IN MODEL EX-GWF-CSUB-P04  PACKAGE EX-GWF-CSUB-P04 CONNECTED TO MODEL EX-GWF-CSUB-P04  PACKAGE CSUB             ON UNIT   1020 AT TIME STEP     37, STRESS PERIOD      2
 UBDSV1 SAVING  CSUB-WATERCOMP  ON UNIT   1020 AT TIME STEP     37, STRESS PERIOD      2
 UBDSV06 SAVING              WEL IN MODEL EX-GWF-CSUB-P04  PACKAGE EX-GWF-CSUB-P04 CONNECTED TO MODEL EX-GWF-CSUB-P04  PACKAGE WEL_0            ON UNIT   1020 AT TIME STEP     37, STRESS PERIOD      2
 UBDSV06 SAVING              RCH IN MODEL EX-GWF-CSUB-P04  PACKAGE EX-GWF-CSUB-P04 CONNECTED TO MODEL EX-GWF-CSUB-P04  PACKAGE RCH_0            ON UNIT   1020 AT TIME STEP     37, STRESS PERIOD      2
 UBDSV06 SAVING              CHD IN MODEL EX-GWF-CSUB-P04  PACKAGE EX-GWF-CSUB-P04 CONNECTED TO MODEL EX-GWF-CSUB-P04  PACKAGE CHD_0            ON UNIT   1020 AT TIME STEP     37, STRESS PERIOD      2

 HEAD WILL BE SAVED ON UNIT 1021 AT END OF TIME STEP   37, STRESS PERIOD    2


  VOLUME BUDGET FOR ENTIRE MODEL AT END OF TIME STEP   37, STRESS PERIOD   2
  ---------------------------------------------------------------------------------------------------

     CUMULATIVE VOLUME      L**3       RATES FOR THIS TIME STEP      L**3/T          PACKAGE NAME    
     ------------------                 ------------------------                     ----------------

           IN:                                      IN:
           ---                                      ---
              STO-SS =           0.0000                STO-SS =           0.0000     STORAGE                          
              STO-SY =  1886722896.9671                STO-SY =      135885.4849     STORAGE                          
      CSUB-CGELASTIC =     4462254.8242        CSUB-CGELASTIC =         308.8675     CSUB                             
        CSUB-ELASTIC =    13867657.0994          CSUB-ELASTIC =         935.9913     CSUB                             
      CSUB-INELASTIC =     2685768.4646        CSUB-INELASTIC =         159.3166     CSUB                             
      CSUB-WATERCOMP =     6893344.7030        CSUB-WATERCOMP =         481.2724     CSUB                             
                 WEL =           0.0000                   WEL =           0.0000     WEL_0                            
                 RCH =   535164300.0000                   RCH =       39600.0000     RCH_0                            
                 CHD =           0.0000                   CHD =           0.0000     CHD_0                            

            TOTAL IN =  2449796222.0584              TOTAL IN =      177370.9327

          OUT:                                     OUT:
          ----                                     ----
              STO-SS =           0.0000                STO-SS =           0.0000     STORAGE                          
              STO-SY =           0.0000                STO-SY =           0.0000     STORAGE                          
      CSUB-CGELASTIC =     4140275.0861        CSUB-CGELASTIC =         303.6807     CSUB                             
        CSUB-ELASTIC =           0.0000          CSUB-ELASTIC =           0.0000     CSUB                             
      CSUB-INELASTIC =           0.0000        CSUB-INELASTIC =           0.0000     CSUB                             
      CSUB-WATERCOMP =           0.0000        CSUB-WATERCOMP =           0.0000     CSUB                             
                 WEL =  1946052000.0000                   WEL =      144000.0000     WEL_0                            
                 RCH =           0.0000                   RCH =           0.0000     RCH_0                            
                 CHD =   499603946.9704                   CHD =       33067.2520     CHD_0                            

           TOTAL OUT =  2449796222.0565             TOTAL OUT =      177370.9327

            IN - OUT =       1.9488E-03              IN - OUT =       9.0688E-08

 PERCENT DISCREPANCY =           0.00     PERCENT DISCREPANCY =           0.00




         TIME SUMMARY AT END OF TIME STEP   37 IN STRESS PERIOD    2
                    SECONDS     MINUTES      HOURS       DAYS        YEARS
                    -----------------------------------------------------------
   TIME STEP LENGTH 3.15576E+07 5.25960E+05  8766.0      365.25      1.0000    
 STRESS PERIOD TIME 1.16763E+09 1.94605E+07 3.24342E+05  13514.      37.000    
         TOTAL TIME 1.16763E+09 1.94605E+07 3.24342E+05  13514.      37.000    


end timestep


start timestep kper="2" kstp="38" mode="normal"

 UBDSV1 SAVING           STO-SS ON UNIT   1020 AT TIME STEP     38, STRESS PERIOD      2
 UBDSV1 SAVING           STO-SY ON UNIT   1020 AT TIME STEP     38, STRESS PERIOD      2
 UBDSV1 SAVING     FLOW-JA-FACE ON UNIT   1020 AT TIME STEP     38, STRESS PERIOD      2
 UBDSV06 SAVING       DATA-SPDIS IN MODEL EX-GWF-CSUB-P04  PACKAGE NPF             CONNECTED TO MODEL EX-GWF-CSUB-P04  PACKAGE NPF              ON UNIT   1020 AT TIME STEP     38, STRESS PERIOD      2
 UBDSV1 SAVING  CSUB-CGELASTIC  ON UNIT   1020 AT TIME STEP     38, STRESS PERIOD      2
 UBDSV06 SAVING    CSUB-ELASTIC  IN MODEL EX-GWF-CSUB-P04  PACKAGE EX-GWF-CSUB-P04 CONNECTED TO MODEL EX-GWF-CSUB-P04  PACKAGE CSUB             ON UNIT   1020 AT TIME STEP     38, STRESS PERIOD      2
 UBDSV06 SAVING  CSUB-INELASTIC  IN MODEL EX-GWF-CSUB-P04  PACKAGE EX-GWF-CSUB-P04 CONNECTED TO MODEL EX-GWF-CSUB-P04  PACKAGE CSUB             ON UNIT   1020 AT TIME STEP     38, STRESS PERIOD      2
 UBDSV1 SAVING  CSUB-WATERCOMP  ON UNIT   1020 AT TIME STEP     38, STRESS PERIOD      2
 UBDSV06 SAVING              WEL IN MODEL EX-GWF-CSUB-P04  PACKAGE EX-GWF-CSUB-P04 CONNECTED TO MODEL EX-GWF-CSUB-P04  PACKAGE WEL_0            ON UNIT   1020 AT TIME STEP     38, STRESS PERIOD      2
 UBDSV06 SAVING              RCH IN MODEL EX-GWF-CSUB-P04  PACKAGE EX-GWF-CSUB-P04 CONNECTED TO MODEL EX-GWF-CSUB-P04  PACKAGE RCH_0            ON UNIT   1020 AT TIME STEP     38, STRESS PERIOD      2
 UBDSV06 SAVING              CHD IN MODEL EX-GWF-CSUB-P04  PACKAGE EX-GWF-CSUB-P04 CONNECTED TO MODEL EX-GWF-CSUB-P04  PACKAGE CHD_0            ON UNIT   1020 AT TIME STEP     38, STRESS PERIOD      2

 HEAD WILL BE SAVED ON UNIT 1021 AT END OF TIME STEP   38, STRESS PERIOD    2


  VOLUME BUDGET FOR ENTIRE MODEL AT END OF TIME STEP   38, STRESS PERIOD   2
  ---------------------------------------------------------------------------------------------------

     CUMULATIVE VOLUME      L**3       RATES FOR THIS TIME STEP      L**3/T          PACKAGE NAME    
     ------------------                 ------------------------                     ----------------

           IN:                                      IN:
           ---                                      ---
              STO-SS =           0.0000                STO-SS =           0.0000     STORAGE                          
              STO-SY =  1936266750.8318                STO-SY =      135643.6793     STORAGE                          
      CSUB-CGELASTIC =     4574813.2341        CSUB-CGELASTIC =         308.1681     CSUB                             
        CSUB-ELASTIC =    14207934.1617          CSUB-ELASTIC =         931.6278     CSUB                             
      CSUB-INELASTIC =     2743369.1479        CSUB-INELASTIC =         157.7021     CSUB                             
      CSUB-WATERCOMP =     7068716.1414        CSUB-WATERCOMP =         480.1408     CSUB                             
                 WEL =           0.0000                   WEL =           0.0000     WEL_0                            
                 RCH =   549628200.0000                   RCH =       39600.0000     RCH_0                            
                 CHD =           0.0000                   CHD =           0.0000     CHD_0                            

            TOTAL IN =  2514489783.5169              TOTAL IN =      177121.3182

          OUT:                                     OUT:
          ----                                     ----
              STO-SS =           0.0000                STO-SS =           0.0000     STORAGE                          
              STO-SY =           0.0000                STO-SY =           0.0000     STORAGE                          
      CSUB-CGELASTIC =     4251108.5039        CSUB-CGELASTIC =         303.4454     CSUB                             
        CSUB-ELASTIC =           0.0000          CSUB-ELASTIC =           0.0000     CSUB                             
      CSUB-INELASTIC =           0.0000        CSUB-INELASTIC =           0.0000     CSUB                             
      CSUB-WATERCOMP =           0.0000        CSUB-WATERCOMP =           0.0000     CSUB                             
                 WEL =  1998648000.0000                   WEL =      144000.0000     WEL_0                            
                 RCH =           0.0000                   RCH =           0.0000     RCH_0                            
                 CHD =   511590675.0111                   CHD =       32817.8728     CHD_0                            

           TOTAL OUT =  2514489783.5149             TOTAL OUT =      177121.3182

            IN - OUT =       1.9522E-03              IN - OUT =       7.4215E-09

 PERCENT DISCREPANCY =           0.00     PERCENT DISCREPANCY =           0.00




         TIME SUMMARY AT END OF TIME STEP   38 IN STRESS PERIOD    2
                    SECONDS     MINUTES      HOURS       DAYS        YEARS
                    -----------------------------------------------------------
   TIME STEP LENGTH 3.15576E+07 5.25960E+05  8766.0      365.25      1.0000    
 STRESS PERIOD TIME 1.19919E+09 1.99865E+07 3.33108E+05  13880.      38.000    
         TOTAL TIME 1.19919E+09 1.99865E+07 3.33108E+05  13880.      38.000    


end timestep


start timestep kper="2" kstp="39" mode="normal"

 UBDSV1 SAVING           STO-SS ON UNIT   1020 AT TIME STEP     39, STRESS PERIOD      2
 UBDSV1 SAVING           STO-SY ON UNIT   1020 AT TIME STEP     39, STRESS PERIOD      2
 UBDSV1 SAVING     FLOW-JA-FACE ON UNIT   1020 AT TIME STEP     39, STRESS PERIOD      2
 UBDSV06 SAVING       DATA-SPDIS IN MODEL EX-GWF-CSUB-P04  PACKAGE NPF             CONNECTED TO MODEL EX-GWF-CSUB-P04  PACKAGE NPF              ON UNIT   1020 AT TIME STEP     39, STRESS PERIOD      2
 UBDSV1 SAVING  CSUB-CGELASTIC  ON UNIT   1020 AT TIME STEP     39, STRESS PERIOD      2
 UBDSV06 SAVING    CSUB-ELASTIC  IN MODEL EX-GWF-CSUB-P04  PACKAGE EX-GWF-CSUB-P04 CONNECTED TO MODEL EX-GWF-CSUB-P04  PACKAGE CSUB             ON UNIT   1020 AT TIME STEP     39, STRESS PERIOD      2
 UBDSV06 SAVING  CSUB-INELASTIC  IN MODEL EX-GWF-CSUB-P04  PACKAGE EX-GWF-CSUB-P04 CONNECTED TO MODEL EX-GWF-CSUB-P04  PACKAGE CSUB             ON UNIT   1020 AT TIME STEP     39, STRESS PERIOD      2
 UBDSV1 SAVING  CSUB-WATERCOMP  ON UNIT   1020 AT TIME STEP     39, STRESS PERIOD      2
 UBDSV06 SAVING              WEL IN MODEL EX-GWF-CSUB-P04  PACKAGE EX-GWF-CSUB-P04 CONNECTED TO MODEL EX-GWF-CSUB-P04  PACKAGE WEL_0            ON UNIT   1020 AT TIME STEP     39, STRESS PERIOD      2
 UBDSV06 SAVING              RCH IN MODEL EX-GWF-CSUB-P04  PACKAGE EX-GWF-CSUB-P04 CONNECTED TO MODEL EX-GWF-CSUB-P04  PACKAGE RCH_0            ON UNIT   1020 AT TIME STEP     39, STRESS PERIOD      2
 UBDSV06 SAVING              CHD IN MODEL EX-GWF-CSUB-P04  PACKAGE EX-GWF-CSUB-P04 CONNECTED TO MODEL EX-GWF-CSUB-P04  PACKAGE CHD_0            ON UNIT   1020 AT TIME STEP     39, STRESS PERIOD      2

 HEAD WILL BE SAVED ON UNIT 1021 AT END OF TIME STEP   39, STRESS PERIOD    2


  VOLUME BUDGET FOR ENTIRE MODEL AT END OF TIME STEP   39, STRESS PERIOD   2
  ---------------------------------------------------------------------------------------------------

     CUMULATIVE VOLUME      L**3       RATES FOR THIS TIME STEP      L**3/T          PACKAGE NAME    
     ------------------                 ------------------------                     ----------------

           IN:                                      IN:
           ---                                      ---
              STO-SS =           0.0000                STO-SS =           0.0000     STORAGE                          
              STO-SY =  1985722159.3416                STO-SY =      135401.5291     STORAGE                          
      CSUB-CGELASTIC =     4687116.0221        CSUB-CGELASTIC =         307.4683     CSUB                             
        CSUB-ELASTIC =    14546618.9247          CSUB-ELASTIC =         927.2683     CSUB                             
      CSUB-INELASTIC =     2800415.2035        CSUB-INELASTIC =         156.1836     CSUB                             
      CSUB-WATERCOMP =     7243673.9075        CSUB-WATERCOMP =         479.0083     CSUB                             
                 WEL =           0.0000                   WEL =           0.0000     WEL_0                            
                 RCH =   564092100.0000                   RCH =       39600.0000     RCH_0                            
                 CHD =           0.0000                   CHD =           0.0000     CHD_0                            

            TOTAL IN =  2579092083.3994              TOTAL IN =      176871.4576

          OUT:                                     OUT:
          ----                                     ----
              STO-SS =           0.0000                STO-SS =           0.0000     STORAGE                          
              STO-SY =           0.0000                STO-SY =           0.0000     STORAGE                          
      CSUB-CGELASTIC =     4361855.2866        CSUB-CGELASTIC =         303.2082     CSUB                             
        CSUB-ELASTIC =           0.0000          CSUB-ELASTIC =           0.0000     CSUB                             
      CSUB-INELASTIC =           0.0000        CSUB-INELASTIC =           0.0000     CSUB                             
      CSUB-WATERCOMP =           0.0000        CSUB-WATERCOMP =           0.0000     CSUB                             
                 WEL =  2051244000.0000                   WEL =      144000.0000     WEL_0                            
                 RCH =           0.0000                   RCH =           0.0000     RCH_0                            
                 CHD =   523486228.1106                   CHD =       32568.2494     CHD_0                            

           TOTAL OUT =  2579092083.3972             TOTAL OUT =      176871.4576

            IN - OUT =       2.2197E-03              IN - OUT =       7.3292E-07

 PERCENT DISCREPANCY =           0.00     PERCENT DISCREPANCY =           0.00




         TIME SUMMARY AT END OF TIME STEP   39 IN STRESS PERIOD    2
                    SECONDS     MINUTES      HOURS       DAYS        YEARS
                    -----------------------------------------------------------
   TIME STEP LENGTH 3.15576E+07 5.25960E+05  8766.0      365.25      1.0000    
 STRESS PERIOD TIME 1.23075E+09 2.05124E+07 3.41874E+05  14245.      39.000    
         TOTAL TIME 1.23075E+09 2.05124E+07 3.41874E+05  14245.      39.000    


end timestep


start timestep kper="2" kstp="40" mode="normal"

 UBDSV1 SAVING           STO-SS ON UNIT   1020 AT TIME STEP     40, STRESS PERIOD      2
 UBDSV1 SAVING           STO-SY ON UNIT   1020 AT TIME STEP     40, STRESS PERIOD      2
 UBDSV1 SAVING     FLOW-JA-FACE ON UNIT   1020 AT TIME STEP     40, STRESS PERIOD      2
 UBDSV06 SAVING       DATA-SPDIS IN MODEL EX-GWF-CSUB-P04  PACKAGE NPF             CONNECTED TO MODEL EX-GWF-CSUB-P04  PACKAGE NPF              ON UNIT   1020 AT TIME STEP     40, STRESS PERIOD      2
 UBDSV1 SAVING  CSUB-CGELASTIC  ON UNIT   1020 AT TIME STEP     40, STRESS PERIOD      2
 UBDSV06 SAVING    CSUB-ELASTIC  IN MODEL EX-GWF-CSUB-P04  PACKAGE EX-GWF-CSUB-P04 CONNECTED TO MODEL EX-GWF-CSUB-P04  PACKAGE CSUB             ON UNIT   1020 AT TIME STEP     40, STRESS PERIOD      2
 UBDSV06 SAVING  CSUB-INELASTIC  IN MODEL EX-GWF-CSUB-P04  PACKAGE EX-GWF-CSUB-P04 CONNECTED TO MODEL EX-GWF-CSUB-P04  PACKAGE CSUB             ON UNIT   1020 AT TIME STEP     40, STRESS PERIOD      2
 UBDSV1 SAVING  CSUB-WATERCOMP  ON UNIT   1020 AT TIME STEP     40, STRESS PERIOD      2
 UBDSV06 SAVING              WEL IN MODEL EX-GWF-CSUB-P04  PACKAGE EX-GWF-CSUB-P04 CONNECTED TO MODEL EX-GWF-CSUB-P04  PACKAGE WEL_0            ON UNIT   1020 AT TIME STEP     40, STRESS PERIOD      2
 UBDSV06 SAVING              RCH IN MODEL EX-GWF-CSUB-P04  PACKAGE EX-GWF-CSUB-P04 CONNECTED TO MODEL EX-GWF-CSUB-P04  PACKAGE RCH_0            ON UNIT   1020 AT TIME STEP     40, STRESS PERIOD      2
 UBDSV06 SAVING              CHD IN MODEL EX-GWF-CSUB-P04  PACKAGE EX-GWF-CSUB-P04 CONNECTED TO MODEL EX-GWF-CSUB-P04  PACKAGE CHD_0            ON UNIT   1020 AT TIME STEP     40, STRESS PERIOD      2

 HEAD WILL BE SAVED ON UNIT 1021 AT END OF TIME STEP   40, STRESS PERIOD    2


  VOLUME BUDGET FOR ENTIRE MODEL AT END OF TIME STEP   40, STRESS PERIOD   2
  ---------------------------------------------------------------------------------------------------

     CUMULATIVE VOLUME      L**3       RATES FOR THIS TIME STEP      L**3/T          PACKAGE NAME    
     ------------------                 ------------------------                     ----------------

           IN:                                      IN:
           ---                                      ---
              STO-SS =           0.0000                STO-SS =           0.0000     STORAGE                          
              STO-SY =  2035085520.4783                STO-SY =      135149.5171     STORAGE                          
      CSUB-CGELASTIC =     4799136.9330        CSUB-CGELASTIC =         306.6965     CSUB                             
        CSUB-ELASTIC =    14883506.9355          CSUB-ELASTIC =         922.3491     CSUB                             
      CSUB-INELASTIC =     2860712.4785        CSUB-INELASTIC =         165.0849     CSUB                             
      CSUB-WATERCOMP =     7418187.7807        CSUB-WATERCOMP =         477.7929     CSUB                             
                 WEL =           0.0000                   WEL =           0.0000     WEL_0                            
                 RCH =   578556000.0000                   RCH =       39600.0000     RCH_0                            
                 CHD =           0.0000                   CHD =           0.0000     CHD_0                            

            TOTAL IN =  2643603064.6059              TOTAL IN =      176621.4407

          OUT:                                     OUT:
          ----                                     ----
              STO-SS =           0.0000                STO-SS =           0.0000     STORAGE                          
              STO-SY =           0.0000                STO-SY =           0.0000     STORAGE                          
      CSUB-CGELASTIC =     4472506.6508        CSUB-CGELASTIC =         302.9469     CSUB                             
        CSUB-ELASTIC =           0.0000          CSUB-ELASTIC =           0.0000     CSUB                             
      CSUB-INELASTIC =           0.0000        CSUB-INELASTIC =           0.0000     CSUB                             
      CSUB-WATERCOMP =           0.0000        CSUB-WATERCOMP =           0.0000     CSUB                             
                 WEL =  2103840000.0000                   WEL =      144000.0000     WEL_0                            
                 RCH =           0.0000                   RCH =           0.0000     RCH_0                            
                 CHD =   535290557.9527                   CHD =       32318.4937     CHD_0                            

           TOTAL OUT =  2643603064.6035             TOTAL OUT =      176621.4407

            IN - OUT =       2.4710E-03              IN - OUT =       6.8799E-07

 PERCENT DISCREPANCY =           0.00     PERCENT DISCREPANCY =           0.00




         TIME SUMMARY AT END OF TIME STEP   40 IN STRESS PERIOD    2
                    SECONDS     MINUTES      HOURS       DAYS        YEARS
                    -----------------------------------------------------------
   TIME STEP LENGTH 3.15576E+07 5.25960E+05  8766.0      365.25      1.0000    
 STRESS PERIOD TIME 1.26230E+09 2.10384E+07 3.50640E+05  14610.      40.000    
         TOTAL TIME 1.26230E+09 2.10384E+07 3.50640E+05  14610.      40.000    


end timestep


start timestep kper="2" kstp="41" mode="normal"

 UBDSV1 SAVING           STO-SS ON UNIT   1020 AT TIME STEP     41, STRESS PERIOD      2
 UBDSV1 SAVING           STO-SY ON UNIT   1020 AT TIME STEP     41, STRESS PERIOD      2
 UBDSV1 SAVING     FLOW-JA-FACE ON UNIT   1020 AT TIME STEP     41, STRESS PERIOD      2
 UBDSV06 SAVING       DATA-SPDIS IN MODEL EX-GWF-CSUB-P04  PACKAGE NPF             CONNECTED TO MODEL EX-GWF-CSUB-P04  PACKAGE NPF              ON UNIT   1020 AT TIME STEP     41, STRESS PERIOD      2
 UBDSV1 SAVING  CSUB-CGELASTIC  ON UNIT   1020 AT TIME STEP     41, STRESS PERIOD      2
 UBDSV06 SAVING    CSUB-ELASTIC  IN MODEL EX-GWF-CSUB-P04  PACKAGE EX-GWF-CSUB-P04 CONNECTED TO MODEL EX-GWF-CSUB-P04  PACKAGE CSUB             ON UNIT   1020 AT TIME STEP     41, STRESS PERIOD      2
 UBDSV06 SAVING  CSUB-INELASTIC  IN MODEL EX-GWF-CSUB-P04  PACKAGE EX-GWF-CSUB-P04 CONNECTED TO MODEL EX-GWF-CSUB-P04  PACKAGE CSUB             ON UNIT   1020 AT TIME STEP     41, STRESS PERIOD      2
 UBDSV1 SAVING  CSUB-WATERCOMP  ON UNIT   1020 AT TIME STEP     41, STRESS PERIOD      2
 UBDSV06 SAVING              WEL IN MODEL EX-GWF-CSUB-P04  PACKAGE EX-GWF-CSUB-P04 CONNECTED TO MODEL EX-GWF-CSUB-P04  PACKAGE WEL_0            ON UNIT   1020 AT TIME STEP     41, STRESS PERIOD      2
 UBDSV06 SAVING              RCH IN MODEL EX-GWF-CSUB-P04  PACKAGE EX-GWF-CSUB-P04 CONNECTED TO MODEL EX-GWF-CSUB-P04  PACKAGE RCH_0            ON UNIT   1020 AT TIME STEP     41, STRESS PERIOD      2
 UBDSV06 SAVING              CHD IN MODEL EX-GWF-CSUB-P04  PACKAGE EX-GWF-CSUB-P04 CONNECTED TO MODEL EX-GWF-CSUB-P04  PACKAGE CHD_0            ON UNIT   1020 AT TIME STEP     41, STRESS PERIOD      2

 HEAD WILL BE SAVED ON UNIT 1021 AT END OF TIME STEP   41, STRESS PERIOD    2


  VOLUME BUDGET FOR ENTIRE MODEL AT END OF TIME STEP   41, STRESS PERIOD   2
  ---------------------------------------------------------------------------------------------------

     CUMULATIVE VOLUME      L**3       RATES FOR THIS TIME STEP      L**3/T          PACKAGE NAME    
     ------------------                 ------------------------                     ----------------

           IN:                                      IN:
           ---                                      ---
              STO-SS =           0.0000                STO-SS =           0.0000     STORAGE                          
              STO-SY =  2084350910.9570                STO-SY =      134881.2881     STORAGE                          
      CSUB-CGELASTIC =     4910850.7914        CSUB-CGELASTIC =         305.8559     CSUB                             
        CSUB-ELASTIC =    15218293.4588          CSUB-ELASTIC =         916.5955     CSUB                             
      CSUB-INELASTIC =     2930524.0552        CSUB-INELASTIC =         191.1337     CSUB                             
      CSUB-WATERCOMP =     7592227.3535        CSUB-WATERCOMP =         476.4944     CSUB                             
                 WEL =           0.0000                   WEL =           0.0000     WEL_0                            
                 RCH =   593019900.0000                   RCH =       39600.0000     RCH_0                            
                 CHD =           0.0000                   CHD =           0.0000     CHD_0                            

            TOTAL IN =  2708022706.6159              TOTAL IN =      176371.3676

          OUT:                                     OUT:
          ----                                     ----
              STO-SS =           0.0000                STO-SS =           0.0000     STORAGE                          
              STO-SY =           0.0000                STO-SY =           0.0000     STORAGE                          
      CSUB-CGELASTIC =     4583048.2884        CSUB-CGELASTIC =         302.6465     CSUB                             
        CSUB-ELASTIC =           0.0000          CSUB-ELASTIC =           0.0000     CSUB                             
      CSUB-INELASTIC =           0.0000        CSUB-INELASTIC =           0.0000     CSUB                             
      CSUB-WATERCOMP =           0.0000        CSUB-WATERCOMP =           0.0000     CSUB                             
                 WEL =  2156436000.0000                   WEL =      144000.0000     WEL_0                            
                 RCH =           0.0000                   RCH =           0.0000     RCH_0                            
                 CHD =   547003658.3247                   CHD =       32068.7211     CHD_0                            

           TOTAL OUT =  2708022706.6132             TOTAL OUT =      176371.3676

            IN - OUT =       2.7118E-03              IN - OUT =       6.5853E-07

 PERCENT DISCREPANCY =           0.00     PERCENT DISCREPANCY =           0.00




         TIME SUMMARY AT END OF TIME STEP   41 IN STRESS PERIOD    2
                    SECONDS     MINUTES      HOURS       DAYS        YEARS
                    -----------------------------------------------------------
   TIME STEP LENGTH 3.15576E+07 5.25960E+05  8766.0      365.25      1.0000    
 STRESS PERIOD TIME 1.29386E+09 2.15644E+07 3.59406E+05  14975.      41.000    
         TOTAL TIME 1.29386E+09 2.15644E+07 3.59406E+05  14975.      41.000    


end timestep


start timestep kper="2" kstp="42" mode="normal"

 UBDSV1 SAVING           STO-SS ON UNIT   1020 AT TIME STEP     42, STRESS PERIOD      2
 UBDSV1 SAVING           STO-SY ON UNIT   1020 AT TIME STEP     42, STRESS PERIOD      2
 UBDSV1 SAVING     FLOW-JA-FACE ON UNIT   1020 AT TIME STEP     42, STRESS PERIOD      2
 UBDSV06 SAVING       DATA-SPDIS IN MODEL EX-GWF-CSUB-P04  PACKAGE NPF             CONNECTED TO MODEL EX-GWF-CSUB-P04  PACKAGE NPF              ON UNIT   1020 AT TIME STEP     42, STRESS PERIOD      2
 UBDSV1 SAVING  CSUB-CGELASTIC  ON UNIT   1020 AT TIME STEP     42, STRESS PERIOD      2
 UBDSV06 SAVING    CSUB-ELASTIC  IN MODEL EX-GWF-CSUB-P04  PACKAGE EX-GWF-CSUB-P04 CONNECTED TO MODEL EX-GWF-CSUB-P04  PACKAGE CSUB             ON UNIT   1020 AT TIME STEP     42, STRESS PERIOD      2
 UBDSV06 SAVING  CSUB-INELASTIC  IN MODEL EX-GWF-CSUB-P04  PACKAGE EX-GWF-CSUB-P04 CONNECTED TO MODEL EX-GWF-CSUB-P04  PACKAGE CSUB             ON UNIT   1020 AT TIME STEP     42, STRESS PERIOD      2
 UBDSV1 SAVING  CSUB-WATERCOMP  ON UNIT   1020 AT TIME STEP     42, STRESS PERIOD      2
 UBDSV06 SAVING              WEL IN MODEL EX-GWF-CSUB-P04  PACKAGE EX-GWF-CSUB-P04 CONNECTED TO MODEL EX-GWF-CSUB-P04  PACKAGE WEL_0            ON UNIT   1020 AT TIME STEP     42, STRESS PERIOD      2
 UBDSV06 SAVING              RCH IN MODEL EX-GWF-CSUB-P04  PACKAGE EX-GWF-CSUB-P04 CONNECTED TO MODEL EX-GWF-CSUB-P04  PACKAGE RCH_0            ON UNIT   1020 AT TIME STEP     42, STRESS PERIOD      2
 UBDSV06 SAVING              CHD IN MODEL EX-GWF-CSUB-P04  PACKAGE EX-GWF-CSUB-P04 CONNECTED TO MODEL EX-GWF-CSUB-P04  PACKAGE CHD_0            ON UNIT   1020 AT TIME STEP     42, STRESS PERIOD      2

 HEAD WILL BE SAVED ON UNIT 1021 AT END OF TIME STEP   42, STRESS PERIOD    2


  VOLUME BUDGET FOR ENTIRE MODEL AT END OF TIME STEP   42, STRESS PERIOD   2
  ---------------------------------------------------------------------------------------------------

     CUMULATIVE VOLUME      L**3       RATES FOR THIS TIME STEP      L**3/T          PACKAGE NAME    
     ------------------                 ------------------------                     ----------------

           IN:                                      IN:
           ---                                      ---
              STO-SS =           0.0000                STO-SS =           0.0000     STORAGE                          
              STO-SY =  2133527021.7850                STO-SY =      134636.8537     STORAGE                          
      CSUB-CGELASTIC =     5022353.0756        CSUB-CGELASTIC =         305.2766     CSUB                             
        CSUB-ELASTIC =    15551553.8978          CSUB-ELASTIC =         912.4174     CSUB                             
      CSUB-INELASTIC =     3000420.5210        CSUB-INELASTIC =         191.3661     CSUB                             
      CSUB-WATERCOMP =     7765899.9129        CSUB-WATERCOMP =         475.4896     CSUB                             
                 WEL =           0.0000                   WEL =           0.0000     WEL_0                            
                 RCH =   607483800.0000                   RCH =       39600.0000     RCH_0                            
                 CHD =           0.0000                   CHD =           0.0000     CHD_0                            

            TOTAL IN =  2772351049.1923              TOTAL IN =      176121.4034

          OUT:                                     OUT:
          ----                                     ----
              STO-SS =           0.0000                STO-SS =           0.0000     STORAGE                          
              STO-SY =           0.0000                STO-SY =           0.0000     STORAGE                          
      CSUB-CGELASTIC =     4693499.9022        CSUB-CGELASTIC =         302.4000     CSUB                             
        CSUB-ELASTIC =           0.0000          CSUB-ELASTIC =           0.0000     CSUB                             
      CSUB-INELASTIC =           0.0000        CSUB-INELASTIC =           0.0000     CSUB                             
      CSUB-WATERCOMP =           0.0000        CSUB-WATERCOMP =           0.0000     CSUB                             
                 WEL =  2209032000.0000                   WEL =      144000.0000     WEL_0                            
                 RCH =           0.0000                   RCH =           0.0000     RCH_0                            
                 CHD =   558625549.2872                   CHD =       31819.0033     CHD_0                            

           TOTAL OUT =  2772351049.1894             TOTAL OUT =      176121.4034

            IN - OUT =       2.9421E-03              IN - OUT =       6.3339E-07

 PERCENT DISCREPANCY =           0.00     PERCENT DISCREPANCY =           0.00




         TIME SUMMARY AT END OF TIME STEP   42 IN STRESS PERIOD    2
                    SECONDS     MINUTES      HOURS       DAYS        YEARS
                    -----------------------------------------------------------
   TIME STEP LENGTH 3.15576E+07 5.25960E+05  8766.0      365.25      1.0000    
 STRESS PERIOD TIME 1.32542E+09 2.20903E+07 3.68172E+05  15340.      42.000    
         TOTAL TIME 1.32542E+09 2.20903E+07 3.68172E+05  15340.      42.000    


end timestep


start timestep kper="2" kstp="43" mode="normal"

 UBDSV1 SAVING           STO-SS ON UNIT   1020 AT TIME STEP     43, STRESS PERIOD      2
 UBDSV1 SAVING           STO-SY ON UNIT   1020 AT TIME STEP     43, STRESS PERIOD      2
 UBDSV1 SAVING     FLOW-JA-FACE ON UNIT   1020 AT TIME STEP     43, STRESS PERIOD      2
 UBDSV06 SAVING       DATA-SPDIS IN MODEL EX-GWF-CSUB-P04  PACKAGE NPF             CONNECTED TO MODEL EX-GWF-CSUB-P04  PACKAGE NPF              ON UNIT   1020 AT TIME STEP     43, STRESS PERIOD      2
 UBDSV1 SAVING  CSUB-CGELASTIC  ON UNIT   1020 AT TIME STEP     43, STRESS PERIOD      2
 UBDSV06 SAVING    CSUB-ELASTIC  IN MODEL EX-GWF-CSUB-P04  PACKAGE EX-GWF-CSUB-P04 CONNECTED TO MODEL EX-GWF-CSUB-P04  PACKAGE CSUB             ON UNIT   1020 AT TIME STEP     43, STRESS PERIOD      2
 UBDSV06 SAVING  CSUB-INELASTIC  IN MODEL EX-GWF-CSUB-P04  PACKAGE EX-GWF-CSUB-P04 CONNECTED TO MODEL EX-GWF-CSUB-P04  PACKAGE CSUB             ON UNIT   1020 AT TIME STEP     43, STRESS PERIOD      2
 UBDSV1 SAVING  CSUB-WATERCOMP  ON UNIT   1020 AT TIME STEP     43, STRESS PERIOD      2
 UBDSV06 SAVING              WEL IN MODEL EX-GWF-CSUB-P04  PACKAGE EX-GWF-CSUB-P04 CONNECTED TO MODEL EX-GWF-CSUB-P04  PACKAGE WEL_0            ON UNIT   1020 AT TIME STEP     43, STRESS PERIOD      2
 UBDSV06 SAVING              RCH IN MODEL EX-GWF-CSUB-P04  PACKAGE EX-GWF-CSUB-P04 CONNECTED TO MODEL EX-GWF-CSUB-P04  PACKAGE RCH_0            ON UNIT   1020 AT TIME STEP     43, STRESS PERIOD      2
 UBDSV06 SAVING              CHD IN MODEL EX-GWF-CSUB-P04  PACKAGE EX-GWF-CSUB-P04 CONNECTED TO MODEL EX-GWF-CSUB-P04  PACKAGE CHD_0            ON UNIT   1020 AT TIME STEP     43, STRESS PERIOD      2

 HEAD WILL BE SAVED ON UNIT 1021 AT END OF TIME STEP   43, STRESS PERIOD    2


  VOLUME BUDGET FOR ENTIRE MODEL AT END OF TIME STEP   43, STRESS PERIOD   2
  ---------------------------------------------------------------------------------------------------

     CUMULATIVE VOLUME      L**3       RATES FOR THIS TIME STEP      L**3/T          PACKAGE NAME    
     ------------------                 ------------------------                     ----------------

           IN:                                      IN:
           ---                                      ---
              STO-SS =           0.0000                STO-SS =           0.0000     STORAGE                          
              STO-SY =  2182612861.8761                STO-SY =      134389.7059     STORAGE                          
      CSUB-CGELASTIC =     5133599.8742        CSUB-CGELASTIC =         304.5771     CSUB                             
        CSUB-ELASTIC =    15883160.6075          CSUB-ELASTIC =         907.8897     CSUB                             
      CSUB-INELASTIC =     3071661.5626        CSUB-INELASTIC =         195.0473     CSUB                             
      CSUB-WATERCOMP =     7939157.7420        CSUB-WATERCOMP =         474.3541     CSUB                             
                 WEL =           0.0000                   WEL =           0.0000     WEL_0                            
                 RCH =   621947700.0000                   RCH =       39600.0000     RCH_0                            
                 CHD =           0.0000                   CHD =           0.0000     CHD_0                            

            TOTAL IN =  2836588141.6624              TOTAL IN =      175871.5742

          OUT:                                     OUT:
          ----                                     ----
              STO-SS =           0.0000                STO-SS =           0.0000     STORAGE                          
              STO-SY =           0.0000                STO-SY =           0.0000     STORAGE                          
      CSUB-CGELASTIC =     4803858.5435        CSUB-CGELASTIC =         302.1455     CSUB                             
        CSUB-ELASTIC =           0.0000          CSUB-ELASTIC =           0.0000     CSUB                             
      CSUB-INELASTIC =           0.0000        CSUB-INELASTIC =           0.0000     CSUB                             
      CSUB-WATERCOMP =           0.0000        CSUB-WATERCOMP =           0.0000     CSUB                             
                 WEL =  2261628000.0000                   WEL =      144000.0000     WEL_0                            
                 RCH =           0.0000                   RCH =           0.0000     RCH_0                            
                 CHD =   570156283.1160                   CHD =       31569.4287     CHD_0                            

           TOTAL OUT =  2836588141.6595             TOTAL OUT =      175871.5742

            IN - OUT =       2.9526E-03              IN - OUT =       2.7881E-08

 PERCENT DISCREPANCY =           0.00     PERCENT DISCREPANCY =           0.00




         TIME SUMMARY AT END OF TIME STEP   43 IN STRESS PERIOD    2
                    SECONDS     MINUTES      HOURS       DAYS        YEARS
                    -----------------------------------------------------------
   TIME STEP LENGTH 3.15576E+07 5.25960E+05  8766.0      365.25      1.0000    
 STRESS PERIOD TIME 1.35698E+09 2.26163E+07 3.76938E+05  15706.      43.000    
         TOTAL TIME 1.35698E+09 2.26163E+07 3.76938E+05  15706.      43.000    


end timestep


start timestep kper="2" kstp="44" mode="normal"

 UBDSV1 SAVING           STO-SS ON UNIT   1020 AT TIME STEP     44, STRESS PERIOD      2
 UBDSV1 SAVING           STO-SY ON UNIT   1020 AT TIME STEP     44, STRESS PERIOD      2
 UBDSV1 SAVING     FLOW-JA-FACE ON UNIT   1020 AT TIME STEP     44, STRESS PERIOD      2
 UBDSV06 SAVING       DATA-SPDIS IN MODEL EX-GWF-CSUB-P04  PACKAGE NPF             CONNECTED TO MODEL EX-GWF-CSUB-P04  PACKAGE NPF              ON UNIT   1020 AT TIME STEP     44, STRESS PERIOD      2
 UBDSV1 SAVING  CSUB-CGELASTIC  ON UNIT   1020 AT TIME STEP     44, STRESS PERIOD      2
 UBDSV06 SAVING    CSUB-ELASTIC  IN MODEL EX-GWF-CSUB-P04  PACKAGE EX-GWF-CSUB-P04 CONNECTED TO MODEL EX-GWF-CSUB-P04  PACKAGE CSUB             ON UNIT   1020 AT TIME STEP     44, STRESS PERIOD      2
 UBDSV06 SAVING  CSUB-INELASTIC  IN MODEL EX-GWF-CSUB-P04  PACKAGE EX-GWF-CSUB-P04 CONNECTED TO MODEL EX-GWF-CSUB-P04  PACKAGE CSUB             ON UNIT   1020 AT TIME STEP     44, STRESS PERIOD      2
 UBDSV1 SAVING  CSUB-WATERCOMP  ON UNIT   1020 AT TIME STEP     44, STRESS PERIOD      2
 UBDSV06 SAVING              WEL IN MODEL EX-GWF-CSUB-P04  PACKAGE EX-GWF-CSUB-P04 CONNECTED TO MODEL EX-GWF-CSUB-P04  PACKAGE WEL_0            ON UNIT   1020 AT TIME STEP     44, STRESS PERIOD      2
 UBDSV06 SAVING              RCH IN MODEL EX-GWF-CSUB-P04  PACKAGE EX-GWF-CSUB-P04 CONNECTED TO MODEL EX-GWF-CSUB-P04  PACKAGE RCH_0            ON UNIT   1020 AT TIME STEP     44, STRESS PERIOD      2
 UBDSV06 SAVING              CHD IN MODEL EX-GWF-CSUB-P04  PACKAGE EX-GWF-CSUB-P04 CONNECTED TO MODEL EX-GWF-CSUB-P04  PACKAGE CHD_0            ON UNIT   1020 AT TIME STEP     44, STRESS PERIOD      2

 HEAD WILL BE SAVED ON UNIT 1021 AT END OF TIME STEP   44, STRESS PERIOD    2


  VOLUME BUDGET FOR ENTIRE MODEL AT END OF TIME STEP   44, STRESS PERIOD   2
  ---------------------------------------------------------------------------------------------------

     CUMULATIVE VOLUME      L**3       RATES FOR THIS TIME STEP      L**3/T          PACKAGE NAME    
     ------------------                 ------------------------                     ----------------

           IN:                                      IN:
           ---                                      ---
              STO-SS =           0.0000                STO-SS =           0.0000     STORAGE                          
              STO-SY =  2231587631.0961                STO-SY =      134085.6105     STORAGE                          
      CSUB-CGELASTIC =     5244541.7712        CSUB-CGELASTIC =         303.7424     CSUB                             
        CSUB-ELASTIC =    16212114.9062          CSUB-ELASTIC =         900.6278     CSUB                             
      CSUB-INELASTIC =     3166191.1641        CSUB-INELASTIC =         258.8079     CSUB                             
      CSUB-WATERCOMP =     8111935.6456        CSUB-WATERCOMP =         473.0401     CSUB                             
                 WEL =           0.0000                   WEL =           0.0000     WEL_0                            
                 RCH =   636411600.0000                   RCH =       39600.0000     RCH_0                            
                 CHD =           0.0000                   CHD =           0.0000     CHD_0                            

            TOTAL IN =  2900734014.5831              TOTAL IN =      175621.8287

          OUT:                                     OUT:
          ----                                     ----
              STO-SS =           0.0000                STO-SS =           0.0000     STORAGE                          
              STO-SY =           0.0000                STO-SY =           0.0000     STORAGE                          
      CSUB-CGELASTIC =     4914074.4019        CSUB-CGELASTIC =         301.7546     CSUB                             
        CSUB-ELASTIC =           0.0000          CSUB-ELASTIC =           0.0000     CSUB                             
      CSUB-INELASTIC =           0.0000        CSUB-INELASTIC =           0.0000     CSUB                             
      CSUB-WATERCOMP =           0.0000        CSUB-WATERCOMP =           0.0000     CSUB                             
                 WEL =  2314224000.0000                   WEL =      144000.0000     WEL_0                            
                 RCH =           0.0000                   RCH =           0.0000     RCH_0                            
                 CHD =   581595940.1782                   CHD =       31320.0741     CHD_0                            

           TOTAL OUT =  2900734014.5801             TOTAL OUT =      175621.8287

            IN - OUT =       2.9807E-03              IN - OUT =       7.8202E-08

 PERCENT DISCREPANCY =           0.00     PERCENT DISCREPANCY =           0.00




         TIME SUMMARY AT END OF TIME STEP   44 IN STRESS PERIOD    2
                    SECONDS     MINUTES      HOURS       DAYS        YEARS
                    -----------------------------------------------------------
   TIME STEP LENGTH 3.15576E+07 5.25960E+05  8766.0      365.25      1.0000    
 STRESS PERIOD TIME 1.38853E+09 2.31422E+07 3.85704E+05  16071.      44.000    
         TOTAL TIME 1.38853E+09 2.31422E+07 3.85704E+05  16071.      44.000    


end timestep


start timestep kper="2" kstp="45" mode="normal"

 UBDSV1 SAVING           STO-SS ON UNIT   1020 AT TIME STEP     45, STRESS PERIOD      2
 UBDSV1 SAVING           STO-SY ON UNIT   1020 AT TIME STEP     45, STRESS PERIOD      2
 UBDSV1 SAVING     FLOW-JA-FACE ON UNIT   1020 AT TIME STEP     45, STRESS PERIOD      2
 UBDSV06 SAVING       DATA-SPDIS IN MODEL EX-GWF-CSUB-P04  PACKAGE NPF             CONNECTED TO MODEL EX-GWF-CSUB-P04  PACKAGE NPF              ON UNIT   1020 AT TIME STEP     45, STRESS PERIOD      2
 UBDSV1 SAVING  CSUB-CGELASTIC  ON UNIT   1020 AT TIME STEP     45, STRESS PERIOD      2
 UBDSV06 SAVING    CSUB-ELASTIC  IN MODEL EX-GWF-CSUB-P04  PACKAGE EX-GWF-CSUB-P04 CONNECTED TO MODEL EX-GWF-CSUB-P04  PACKAGE CSUB             ON UNIT   1020 AT TIME STEP     45, STRESS PERIOD      2
 UBDSV06 SAVING  CSUB-INELASTIC  IN MODEL EX-GWF-CSUB-P04  PACKAGE EX-GWF-CSUB-P04 CONNECTED TO MODEL EX-GWF-CSUB-P04  PACKAGE CSUB             ON UNIT   1020 AT TIME STEP     45, STRESS PERIOD      2
 UBDSV1 SAVING  CSUB-WATERCOMP  ON UNIT   1020 AT TIME STEP     45, STRESS PERIOD      2
 UBDSV06 SAVING              WEL IN MODEL EX-GWF-CSUB-P04  PACKAGE EX-GWF-CSUB-P04 CONNECTED TO MODEL EX-GWF-CSUB-P04  PACKAGE WEL_0            ON UNIT   1020 AT TIME STEP     45, STRESS PERIOD      2
 UBDSV06 SAVING              RCH IN MODEL EX-GWF-CSUB-P04  PACKAGE EX-GWF-CSUB-P04 CONNECTED TO MODEL EX-GWF-CSUB-P04  PACKAGE RCH_0            ON UNIT   1020 AT TIME STEP     45, STRESS PERIOD      2
 UBDSV06 SAVING              CHD IN MODEL EX-GWF-CSUB-P04  PACKAGE EX-GWF-CSUB-P04 CONNECTED TO MODEL EX-GWF-CSUB-P04  PACKAGE CHD_0            ON UNIT   1020 AT TIME STEP     45, STRESS PERIOD      2

 HEAD WILL BE SAVED ON UNIT 1021 AT END OF TIME STEP   45, STRESS PERIOD    2


  VOLUME BUDGET FOR ENTIRE MODEL AT END OF TIME STEP   45, STRESS PERIOD   2
  ---------------------------------------------------------------------------------------------------

     CUMULATIVE VOLUME      L**3       RATES FOR THIS TIME STEP      L**3/T          PACKAGE NAME    
     ------------------                 ------------------------                     ----------------

           IN:                                      IN:
           ---                                      ---
              STO-SS =           0.0000                STO-SS =           0.0000     STORAGE                          
              STO-SY =  2280436322.5927                STO-SY =      133740.4285     STORAGE                          
      CSUB-CGELASTIC =     5355146.0712        CSUB-CGELASTIC =         302.8181     CSUB                             
        CSUB-ELASTIC =    16537701.0598          CSUB-ELASTIC =         891.4063     CSUB                             
      CSUB-INELASTIC =     3299880.0627        CSUB-INELASTIC =         366.0203     CSUB                             
      CSUB-WATERCOMP =     8284189.4223        CSUB-WATERCOMP =         471.6051     CSUB                             
                 WEL =           0.0000                   WEL =           0.0000     WEL_0                            
                 RCH =   650875500.0000                   RCH =       39600.0000     RCH_0                            
                 CHD =           0.0000                   CHD =           0.0000     CHD_0                            

            TOTAL IN =  2964788739.2087              TOTAL IN =      175372.2782

          OUT:                                     OUT:
          ----                                     ----
              STO-SS =           0.0000                STO-SS =           0.0000     STORAGE                          
              STO-SY =           0.0000                STO-SY =           0.0000     STORAGE                          
      CSUB-CGELASTIC =     5024111.6132        CSUB-CGELASTIC =         301.2655     CSUB                             
        CSUB-ELASTIC =           0.0000          CSUB-ELASTIC =           0.0000     CSUB                             
      CSUB-INELASTIC =           0.0000        CSUB-INELASTIC =           0.0000     CSUB                             
      CSUB-WATERCOMP =           0.0000        CSUB-WATERCOMP =           0.0000     CSUB                             
                 WEL =  2366820000.0000                   WEL =      144000.0000     WEL_0                            
                 RCH =           0.0000                   RCH =           0.0000     RCH_0                            
                 CHD =   592944627.5925                   CHD =       31071.0128     CHD_0                            

           TOTAL OUT =  2964788739.2056             TOTAL OUT =      175372.2782

            IN - OUT =       3.0370E-03              IN - OUT =       1.5381E-07

 PERCENT DISCREPANCY =           0.00     PERCENT DISCREPANCY =           0.00




         TIME SUMMARY AT END OF TIME STEP   45 IN STRESS PERIOD    2
                    SECONDS     MINUTES      HOURS       DAYS        YEARS
                    -----------------------------------------------------------
   TIME STEP LENGTH 3.15576E+07 5.25960E+05  8766.0      365.25      1.0000    
 STRESS PERIOD TIME 1.42009E+09 2.36682E+07 3.94470E+05  16436.      45.000    
         TOTAL TIME 1.42009E+09 2.36682E+07 3.94470E+05  16436.      45.000    


end timestep


start timestep kper="2" kstp="46" mode="normal"

 UBDSV1 SAVING           STO-SS ON UNIT   1020 AT TIME STEP     46, STRESS PERIOD      2
 UBDSV1 SAVING           STO-SY ON UNIT   1020 AT TIME STEP     46, STRESS PERIOD      2
 UBDSV1 SAVING     FLOW-JA-FACE ON UNIT   1020 AT TIME STEP     46, STRESS PERIOD      2
 UBDSV06 SAVING       DATA-SPDIS IN MODEL EX-GWF-CSUB-P04  PACKAGE NPF             CONNECTED TO MODEL EX-GWF-CSUB-P04  PACKAGE NPF              ON UNIT   1020 AT TIME STEP     46, STRESS PERIOD      2
 UBDSV1 SAVING  CSUB-CGELASTIC  ON UNIT   1020 AT TIME STEP     46, STRESS PERIOD      2
 UBDSV06 SAVING    CSUB-ELASTIC  IN MODEL EX-GWF-CSUB-P04  PACKAGE EX-GWF-CSUB-P04 CONNECTED TO MODEL EX-GWF-CSUB-P04  PACKAGE CSUB             ON UNIT   1020 AT TIME STEP     46, STRESS PERIOD      2
 UBDSV06 SAVING  CSUB-INELASTIC  IN MODEL EX-GWF-CSUB-P04  PACKAGE EX-GWF-CSUB-P04 CONNECTED TO MODEL EX-GWF-CSUB-P04  PACKAGE CSUB             ON UNIT   1020 AT TIME STEP     46, STRESS PERIOD      2
 UBDSV1 SAVING  CSUB-WATERCOMP  ON UNIT   1020 AT TIME STEP     46, STRESS PERIOD      2
 UBDSV06 SAVING              WEL IN MODEL EX-GWF-CSUB-P04  PACKAGE EX-GWF-CSUB-P04 CONNECTED TO MODEL EX-GWF-CSUB-P04  PACKAGE WEL_0            ON UNIT   1020 AT TIME STEP     46, STRESS PERIOD      2
 UBDSV06 SAVING              RCH IN MODEL EX-GWF-CSUB-P04  PACKAGE EX-GWF-CSUB-P04 CONNECTED TO MODEL EX-GWF-CSUB-P04  PACKAGE RCH_0            ON UNIT   1020 AT TIME STEP     46, STRESS PERIOD      2
 UBDSV06 SAVING              CHD IN MODEL EX-GWF-CSUB-P04  PACKAGE EX-GWF-CSUB-P04 CONNECTED TO MODEL EX-GWF-CSUB-P04  PACKAGE CHD_0            ON UNIT   1020 AT TIME STEP     46, STRESS PERIOD      2

 HEAD WILL BE SAVED ON UNIT 1021 AT END OF TIME STEP   46, STRESS PERIOD    2


  VOLUME BUDGET FOR ENTIRE MODEL AT END OF TIME STEP   46, STRESS PERIOD   2
  ---------------------------------------------------------------------------------------------------

     CUMULATIVE VOLUME      L**3       RATES FOR THIS TIME STEP      L**3/T          PACKAGE NAME    
     ------------------                 ------------------------                     ----------------

           IN:                                      IN:
           ---                                      ---
              STO-SS =           0.0000                STO-SS =           0.0000     STORAGE                          
              STO-SY =  2329190274.8101                STO-SY =      133481.0465     STORAGE                          
      CSUB-CGELASTIC =     5465473.8851        CSUB-CGELASTIC =         302.0611     CSUB                             
        CSUB-ELASTIC =    16861394.5816          CSUB-ELASTIC =         886.2246     CSUB                             
      CSUB-INELASTIC =     3439975.9601        CSUB-INELASTIC =         383.5617     CSUB                             
      CSUB-WATERCOMP =     8456000.9642        CSUB-WATERCOMP =         470.3944     CSUB                             
                 WEL =           0.0000                   WEL =           0.0000     WEL_0                            
                 RCH =   665339400.0000                   RCH =       39600.0000     RCH_0                            
                 CHD =           0.0000                   CHD =           0.0000     CHD_0                            

            TOTAL IN =  3028752520.2012              TOTAL IN =      175123.2881

          OUT:                                     OUT:
          ----                                     ----
              STO-SS =           0.0000                STO-SS =           0.0000     STORAGE                          
              STO-SY =           0.0000                STO-SY =           0.0000     STORAGE                          
      CSUB-CGELASTIC =     5134044.0489        CSUB-CGELASTIC =         300.9786     CSUB                             
        CSUB-ELASTIC =           0.0000          CSUB-ELASTIC =           0.0000     CSUB                             
      CSUB-INELASTIC =           0.0000        CSUB-INELASTIC =           0.0000     CSUB                             
      CSUB-WATERCOMP =           0.0000        CSUB-WATERCOMP =           0.0000     CSUB                             
                 WEL =  2419416000.0000                   WEL =      144000.0000     WEL_0                            
                 RCH =           0.0000                   RCH =           0.0000     RCH_0                            
                 CHD =   604202476.1491                   CHD =       30822.3095     CHD_0                            

           TOTAL OUT =  3028752520.1980             TOTAL OUT =      175123.2881

            IN - OUT =       3.1104E-03              IN - OUT =       2.0268E-07

 PERCENT DISCREPANCY =           0.00     PERCENT DISCREPANCY =           0.00




         TIME SUMMARY AT END OF TIME STEP   46 IN STRESS PERIOD    2
                    SECONDS     MINUTES      HOURS       DAYS        YEARS
                    -----------------------------------------------------------
   TIME STEP LENGTH 3.15576E+07 5.25960E+05  8766.0      365.25      1.0000    
 STRESS PERIOD TIME 1.45165E+09 2.41942E+07 4.03236E+05  16802.      46.000    
         TOTAL TIME 1.45165E+09 2.41942E+07 4.03236E+05  16802.      46.000    


end timestep


start timestep kper="2" kstp="47" mode="normal"

 UBDSV1 SAVING           STO-SS ON UNIT   1020 AT TIME STEP     47, STRESS PERIOD      2
 UBDSV1 SAVING           STO-SY ON UNIT   1020 AT TIME STEP     47, STRESS PERIOD      2
 UBDSV1 SAVING     FLOW-JA-FACE ON UNIT   1020 AT TIME STEP     47, STRESS PERIOD      2
 UBDSV06 SAVING       DATA-SPDIS IN MODEL EX-GWF-CSUB-P04  PACKAGE NPF             CONNECTED TO MODEL EX-GWF-CSUB-P04  PACKAGE NPF              ON UNIT   1020 AT TIME STEP     47, STRESS PERIOD      2
 UBDSV1 SAVING  CSUB-CGELASTIC  ON UNIT   1020 AT TIME STEP     47, STRESS PERIOD      2
 UBDSV06 SAVING    CSUB-ELASTIC  IN MODEL EX-GWF-CSUB-P04  PACKAGE EX-GWF-CSUB-P04 CONNECTED TO MODEL EX-GWF-CSUB-P04  PACKAGE CSUB             ON UNIT   1020 AT TIME STEP     47, STRESS PERIOD      2
 UBDSV06 SAVING  CSUB-INELASTIC  IN MODEL EX-GWF-CSUB-P04  PACKAGE EX-GWF-CSUB-P04 CONNECTED TO MODEL EX-GWF-CSUB-P04  PACKAGE CSUB             ON UNIT   1020 AT TIME STEP     47, STRESS PERIOD      2
 UBDSV1 SAVING  CSUB-WATERCOMP  ON UNIT   1020 AT TIME STEP     47, STRESS PERIOD      2
 UBDSV06 SAVING              WEL IN MODEL EX-GWF-CSUB-P04  PACKAGE EX-GWF-CSUB-P04 CONNECTED TO MODEL EX-GWF-CSUB-P04  PACKAGE WEL_0            ON UNIT   1020 AT TIME STEP     47, STRESS PERIOD      2
 UBDSV06 SAVING              RCH IN MODEL EX-GWF-CSUB-P04  PACKAGE EX-GWF-CSUB-P04 CONNECTED TO MODEL EX-GWF-CSUB-P04  PACKAGE RCH_0            ON UNIT   1020 AT TIME STEP     47, STRESS PERIOD      2
 UBDSV06 SAVING              CHD IN MODEL EX-GWF-CSUB-P04  PACKAGE EX-GWF-CSUB-P04 CONNECTED TO MODEL EX-GWF-CSUB-P04  PACKAGE CHD_0            ON UNIT   1020 AT TIME STEP     47, STRESS PERIOD      2

 HEAD WILL BE SAVED ON UNIT 1021 AT END OF TIME STEP   47, STRESS PERIOD    2


  VOLUME BUDGET FOR ENTIRE MODEL AT END OF TIME STEP   47, STRESS PERIOD   2
  ---------------------------------------------------------------------------------------------------

     CUMULATIVE VOLUME      L**3       RATES FOR THIS TIME STEP      L**3/T          PACKAGE NAME    
     ------------------                 ------------------------                     ----------------

           IN:                                      IN:
           ---                                      ---
              STO-SS =           0.0000                STO-SS =           0.0000     STORAGE                          
              STO-SY =  2377849138.6310                STO-SY =      133220.7086     STORAGE                          
      CSUB-CGELASTIC =     5575522.4989        CSUB-CGELASTIC =         301.2967     CSUB                             
        CSUB-ELASTIC =    17183175.3158          CSUB-ELASTIC =         880.9876     CSUB                             
      CSUB-INELASTIC =     3587003.9791        CSUB-INELASTIC =         402.5408     CSUB                             
      CSUB-WATERCOMP =     8627368.2236        CSUB-WATERCOMP =         469.1780     CSUB                             
                 WEL =           0.0000                   WEL =           0.0000     WEL_0                            
                 RCH =   679803300.0000                   RCH =       39600.0000     RCH_0                            
                 CHD =           0.0000                   CHD =           0.0000     CHD_0                            

            TOTAL IN =  3092625508.6484              TOTAL IN =      174874.7117

          OUT:                                     OUT:
          ----                                     ----
              STO-SS =           0.0000                STO-SS =           0.0000     STORAGE                          
              STO-SY =           0.0000                STO-SY =           0.0000     STORAGE                          
      CSUB-CGELASTIC =     5243870.1335        CSUB-CGELASTIC =         300.6874     CSUB                             
        CSUB-ELASTIC =           0.0000          CSUB-ELASTIC =           0.0000     CSUB                             
      CSUB-INELASTIC =           0.0000        CSUB-INELASTIC =           0.0000     CSUB                             
      CSUB-WATERCOMP =           0.0000        CSUB-WATERCOMP =           0.0000     CSUB                             
                 WEL =  2472012000.0000                   WEL =      144000.0000     WEL_0                            
                 RCH =           0.0000                   RCH =           0.0000     RCH_0                            
                 CHD =   615369638.5116                   CHD =       30574.0243     CHD_0                            

           TOTAL OUT =  3092625508.6452             TOTAL OUT =      174874.7117

            IN - OUT =       3.1919E-03              IN - OUT =       2.2075E-07

 PERCENT DISCREPANCY =           0.00     PERCENT DISCREPANCY =           0.00




         TIME SUMMARY AT END OF TIME STEP   47 IN STRESS PERIOD    2
                    SECONDS     MINUTES      HOURS       DAYS        YEARS
                    -----------------------------------------------------------
   TIME STEP LENGTH 3.15576E+07 5.25960E+05  8766.0      365.25      1.0000    
 STRESS PERIOD TIME 1.48321E+09 2.47201E+07 4.12002E+05  17167.      47.000    
         TOTAL TIME 1.48321E+09 2.47201E+07 4.12002E+05  17167.      47.000    


end timestep


start timestep kper="2" kstp="48" mode="normal"

 UBDSV1 SAVING           STO-SS ON UNIT   1020 AT TIME STEP     48, STRESS PERIOD      2
 UBDSV1 SAVING           STO-SY ON UNIT   1020 AT TIME STEP     48, STRESS PERIOD      2
 UBDSV1 SAVING     FLOW-JA-FACE ON UNIT   1020 AT TIME STEP     48, STRESS PERIOD      2
 UBDSV06 SAVING       DATA-SPDIS IN MODEL EX-GWF-CSUB-P04  PACKAGE NPF             CONNECTED TO MODEL EX-GWF-CSUB-P04  PACKAGE NPF              ON UNIT   1020 AT TIME STEP     48, STRESS PERIOD      2
 UBDSV1 SAVING  CSUB-CGELASTIC  ON UNIT   1020 AT TIME STEP     48, STRESS PERIOD      2
 UBDSV06 SAVING    CSUB-ELASTIC  IN MODEL EX-GWF-CSUB-P04  PACKAGE EX-GWF-CSUB-P04 CONNECTED TO MODEL EX-GWF-CSUB-P04  PACKAGE CSUB             ON UNIT   1020 AT TIME STEP     48, STRESS PERIOD      2
 UBDSV06 SAVING  CSUB-INELASTIC  IN MODEL EX-GWF-CSUB-P04  PACKAGE EX-GWF-CSUB-P04 CONNECTED TO MODEL EX-GWF-CSUB-P04  PACKAGE CSUB             ON UNIT   1020 AT TIME STEP     48, STRESS PERIOD      2
 UBDSV1 SAVING  CSUB-WATERCOMP  ON UNIT   1020 AT TIME STEP     48, STRESS PERIOD      2
 UBDSV06 SAVING              WEL IN MODEL EX-GWF-CSUB-P04  PACKAGE EX-GWF-CSUB-P04 CONNECTED TO MODEL EX-GWF-CSUB-P04  PACKAGE WEL_0            ON UNIT   1020 AT TIME STEP     48, STRESS PERIOD      2
 UBDSV06 SAVING              RCH IN MODEL EX-GWF-CSUB-P04  PACKAGE EX-GWF-CSUB-P04 CONNECTED TO MODEL EX-GWF-CSUB-P04  PACKAGE RCH_0            ON UNIT   1020 AT TIME STEP     48, STRESS PERIOD      2
 UBDSV06 SAVING              CHD IN MODEL EX-GWF-CSUB-P04  PACKAGE EX-GWF-CSUB-P04 CONNECTED TO MODEL EX-GWF-CSUB-P04  PACKAGE CHD_0            ON UNIT   1020 AT TIME STEP     48, STRESS PERIOD      2

 HEAD WILL BE SAVED ON UNIT 1021 AT END OF TIME STEP   48, STRESS PERIOD    2


  VOLUME BUDGET FOR ENTIRE MODEL AT END OF TIME STEP   48, STRESS PERIOD   2
  ---------------------------------------------------------------------------------------------------

     CUMULATIVE VOLUME      L**3       RATES FOR THIS TIME STEP      L**3/T          PACKAGE NAME    
     ------------------                 ------------------------                     ----------------

           IN:                                      IN:
           ---                                      ---
              STO-SS =           0.0000                STO-SS =           0.0000     STORAGE                          
              STO-SY =  2426419752.5630                STO-SY =      132979.0936     STORAGE                          
      CSUB-CGELASTIC =     5685333.4053        CSUB-CGELASTIC =         300.6459     CSUB                             
        CSUB-ELASTIC =    17503439.2969          CSUB-ELASTIC =         876.8350     CSUB                             
      CSUB-INELASTIC =     3733822.2129        CSUB-INELASTIC =         401.9664     CSUB                             
      CSUB-WATERCOMP =     8798343.4451        CSUB-WATERCOMP =         468.1046     CSUB                             
                 WEL =           0.0000                   WEL =           0.0000     WEL_0                            
                 RCH =   694267200.0000                   RCH =       39600.0000     RCH_0                            
                 CHD =           0.0000                   CHD =           0.0000     CHD_0                            

            TOTAL IN =  3156407890.9232              TOTAL IN =      174626.6455

          OUT:                                     OUT:
          ----                                     ----
              STO-SS =           0.0000                STO-SS =           0.0000     STORAGE                          
              STO-SY =           0.0000                STO-SY =           0.0000     STORAGE                          
      CSUB-CGELASTIC =     5353605.1056        CSUB-CGELASTIC =         300.4380     CSUB                             
        CSUB-ELASTIC =           0.0000          CSUB-ELASTIC =           0.0000     CSUB                             
      CSUB-INELASTIC =           0.0000        CSUB-INELASTIC =           0.0000     CSUB                             
      CSUB-WATERCOMP =           0.0000        CSUB-WATERCOMP =           0.0000     CSUB                             
                 WEL =  2524608000.0000                   WEL =      144000.0000     WEL_0                            
                 RCH =           0.0000                   RCH =           0.0000     RCH_0                            
                 CHD =   626446285.8143                   CHD =       30326.2075     CHD_0                            

           TOTAL OUT =  3156407890.9199             TOTAL OUT =      174626.6455

            IN - OUT =       3.2401E-03              IN - OUT =       1.3239E-07

 PERCENT DISCREPANCY =           0.00     PERCENT DISCREPANCY =           0.00




         TIME SUMMARY AT END OF TIME STEP   48 IN STRESS PERIOD    2
                    SECONDS     MINUTES      HOURS       DAYS        YEARS
                    -----------------------------------------------------------
   TIME STEP LENGTH 3.15576E+07 5.25960E+05  8766.0      365.25      1.0000    
 STRESS PERIOD TIME 1.51476E+09 2.52461E+07 4.20768E+05  17532.      48.000    
         TOTAL TIME 1.51476E+09 2.52461E+07 4.20768E+05  17532.      48.000    


end timestep


start timestep kper="2" kstp="49" mode="normal"

 UBDSV1 SAVING           STO-SS ON UNIT   1020 AT TIME STEP     49, STRESS PERIOD      2
 UBDSV1 SAVING           STO-SY ON UNIT   1020 AT TIME STEP     49, STRESS PERIOD      2
 UBDSV1 SAVING     FLOW-JA-FACE ON UNIT   1020 AT TIME STEP     49, STRESS PERIOD      2
 UBDSV06 SAVING       DATA-SPDIS IN MODEL EX-GWF-CSUB-P04  PACKAGE NPF             CONNECTED TO MODEL EX-GWF-CSUB-P04  PACKAGE NPF              ON UNIT   1020 AT TIME STEP     49, STRESS PERIOD      2
 UBDSV1 SAVING  CSUB-CGELASTIC  ON UNIT   1020 AT TIME STEP     49, STRESS PERIOD      2
 UBDSV06 SAVING    CSUB-ELASTIC  IN MODEL EX-GWF-CSUB-P04  PACKAGE EX-GWF-CSUB-P04 CONNECTED TO MODEL EX-GWF-CSUB-P04  PACKAGE CSUB             ON UNIT   1020 AT TIME STEP     49, STRESS PERIOD      2
 UBDSV06 SAVING  CSUB-INELASTIC  IN MODEL EX-GWF-CSUB-P04  PACKAGE EX-GWF-CSUB-P04 CONNECTED TO MODEL EX-GWF-CSUB-P04  PACKAGE CSUB             ON UNIT   1020 AT TIME STEP     49, STRESS PERIOD      2
 UBDSV1 SAVING  CSUB-WATERCOMP  ON UNIT   1020 AT TIME STEP     49, STRESS PERIOD      2
 UBDSV06 SAVING              WEL IN MODEL EX-GWF-CSUB-P04  PACKAGE EX-GWF-CSUB-P04 CONNECTED TO MODEL EX-GWF-CSUB-P04  PACKAGE WEL_0            ON UNIT   1020 AT TIME STEP     49, STRESS PERIOD      2
 UBDSV06 SAVING              RCH IN MODEL EX-GWF-CSUB-P04  PACKAGE EX-GWF-CSUB-P04 CONNECTED TO MODEL EX-GWF-CSUB-P04  PACKAGE RCH_0            ON UNIT   1020 AT TIME STEP     49, STRESS PERIOD      2
 UBDSV06 SAVING              CHD IN MODEL EX-GWF-CSUB-P04  PACKAGE EX-GWF-CSUB-P04 CONNECTED TO MODEL EX-GWF-CSUB-P04  PACKAGE CHD_0            ON UNIT   1020 AT TIME STEP     49, STRESS PERIOD      2

 HEAD WILL BE SAVED ON UNIT 1021 AT END OF TIME STEP   49, STRESS PERIOD    2


  VOLUME BUDGET FOR ENTIRE MODEL AT END OF TIME STEP   49, STRESS PERIOD   2
  ---------------------------------------------------------------------------------------------------

     CUMULATIVE VOLUME      L**3       RATES FOR THIS TIME STEP      L**3/T          PACKAGE NAME    
     ------------------                 ------------------------                     ----------------

           IN:                                      IN:
           ---                                      ---
              STO-SS =           0.0000                STO-SS =           0.0000     STORAGE                          
              STO-SY =  2474900188.7206                STO-SY =      132732.2003     STORAGE                          
      CSUB-CGELASTIC =     5794888.5186        CSUB-CGELASTIC =         299.9456     CSUB                             
        CSUB-ELASTIC =    17822056.8696          CSUB-ELASTIC =         872.3274     CSUB                             
      CSUB-INELASTIC =     3882712.3833        CSUB-INELASTIC =         407.6391     CSUB                             
      CSUB-WATERCOMP =     8968903.9440        CSUB-WATERCOMP =         466.9692     CSUB                             
                 WEL =           0.0000                   WEL =           0.0000     WEL_0                            
                 RCH =   708731100.0000                   RCH =       39600.0000     RCH_0                            
                 CHD =           0.0000                   CHD =           0.0000     CHD_0                            

            TOTAL IN =  3220099850.4362              TOTAL IN =      174379.0815

          OUT:                                     OUT:
          ----                                     ----
              STO-SS =           0.0000                STO-SS =           0.0000     STORAGE                          
              STO-SY =           0.0000                STO-SY =           0.0000     STORAGE                          
      CSUB-CGELASTIC =     5463243.5675        CSUB-CGELASTIC =         300.1737     CSUB                             
        CSUB-ELASTIC =           0.0000          CSUB-ELASTIC =           0.0000     CSUB                             
      CSUB-INELASTIC =           0.0000        CSUB-INELASTIC =           0.0000     CSUB                             
      CSUB-WATERCOMP =           0.0000        CSUB-WATERCOMP =           0.0000     CSUB                             
                 WEL =  2577204000.0000                   WEL =      144000.0000     WEL_0                            
                 RCH =           0.0000                   RCH =           0.0000     RCH_0                            
                 CHD =   637432606.8654                   CHD =       30078.9077     CHD_0                            

           TOTAL OUT =  3220099850.4329             TOTAL OUT =      174379.0815

            IN - OUT =       3.3231E-03              IN - OUT =       2.2596E-07

 PERCENT DISCREPANCY =           0.00     PERCENT DISCREPANCY =           0.00




         TIME SUMMARY AT END OF TIME STEP   49 IN STRESS PERIOD    2
                    SECONDS     MINUTES      HOURS       DAYS        YEARS
                    -----------------------------------------------------------
   TIME STEP LENGTH 3.15576E+07 5.25960E+05  8766.0      365.25      1.0000    
 STRESS PERIOD TIME 1.54632E+09 2.57720E+07 4.29534E+05  17897.      49.000    
         TOTAL TIME 1.54632E+09 2.57720E+07 4.29534E+05  17897.      49.000    


end timestep


start timestep kper="2" kstp="50" mode="normal"

 UBDSV1 SAVING           STO-SS ON UNIT   1020 AT TIME STEP     50, STRESS PERIOD      2
 UBDSV1 SAVING           STO-SY ON UNIT   1020 AT TIME STEP     50, STRESS PERIOD      2
 UBDSV1 SAVING     FLOW-JA-FACE ON UNIT   1020 AT TIME STEP     50, STRESS PERIOD      2
 UBDSV06 SAVING       DATA-SPDIS IN MODEL EX-GWF-CSUB-P04  PACKAGE NPF             CONNECTED TO MODEL EX-GWF-CSUB-P04  PACKAGE NPF              ON UNIT   1020 AT TIME STEP     50, STRESS PERIOD      2
 UBDSV1 SAVING  CSUB-CGELASTIC  ON UNIT   1020 AT TIME STEP     50, STRESS PERIOD      2
 UBDSV06 SAVING    CSUB-ELASTIC  IN MODEL EX-GWF-CSUB-P04  PACKAGE EX-GWF-CSUB-P04 CONNECTED TO MODEL EX-GWF-CSUB-P04  PACKAGE CSUB             ON UNIT   1020 AT TIME STEP     50, STRESS PERIOD      2
 UBDSV06 SAVING  CSUB-INELASTIC  IN MODEL EX-GWF-CSUB-P04  PACKAGE EX-GWF-CSUB-P04 CONNECTED TO MODEL EX-GWF-CSUB-P04  PACKAGE CSUB             ON UNIT   1020 AT TIME STEP     50, STRESS PERIOD      2
 UBDSV1 SAVING  CSUB-WATERCOMP  ON UNIT   1020 AT TIME STEP     50, STRESS PERIOD      2
 UBDSV06 SAVING              WEL IN MODEL EX-GWF-CSUB-P04  PACKAGE EX-GWF-CSUB-P04 CONNECTED TO MODEL EX-GWF-CSUB-P04  PACKAGE WEL_0            ON UNIT   1020 AT TIME STEP     50, STRESS PERIOD      2
 UBDSV06 SAVING              RCH IN MODEL EX-GWF-CSUB-P04  PACKAGE EX-GWF-CSUB-P04 CONNECTED TO MODEL EX-GWF-CSUB-P04  PACKAGE RCH_0            ON UNIT   1020 AT TIME STEP     50, STRESS PERIOD      2
 UBDSV06 SAVING              CHD IN MODEL EX-GWF-CSUB-P04  PACKAGE EX-GWF-CSUB-P04 CONNECTED TO MODEL EX-GWF-CSUB-P04  PACKAGE CHD_0            ON UNIT   1020 AT TIME STEP     50, STRESS PERIOD      2

 HEAD WILL BE SAVED ON UNIT 1021 AT END OF TIME STEP   50, STRESS PERIOD    2


  VOLUME BUDGET FOR ENTIRE MODEL AT END OF TIME STEP   50, STRESS PERIOD   2
  ---------------------------------------------------------------------------------------------------

     CUMULATIVE VOLUME      L**3       RATES FOR THIS TIME STEP      L**3/T          PACKAGE NAME    
     ------------------                 ------------------------                     ----------------

           IN:                                      IN:
           ---                                      ---
              STO-SS =           0.0000                STO-SS =           0.0000     STORAGE                          
              STO-SY =  2523272778.4052                STO-SY =      132436.9327     STORAGE                          
      CSUB-CGELASTIC =     5904139.8303        CSUB-CGELASTIC =         299.1138     CSUB                             
        CSUB-ELASTIC =    18138163.1357          CSUB-ELASTIC =         865.4518     CSUB                             
      CSUB-INELASTIC =     4052480.2744        CSUB-INELASTIC =         464.7992     CSUB                             
      CSUB-WATERCOMP =     9138988.0059        CSUB-WATERCOMP =         465.6648     CSUB                             
                 WEL =           0.0000                   WEL =           0.0000     WEL_0                            
                 RCH =   723195000.0000                   RCH =       39600.0000     RCH_0                            
                 CHD =           0.0000                   CHD =           0.0000     CHD_0                            

            TOTAL IN =  3283701549.6514              TOTAL IN =      174131.9623

          OUT:                                     OUT:
          ----                                     ----
              STO-SS =           0.0000                STO-SS =           0.0000     STORAGE                          
              STO-SY =           0.0000                STO-SY =           0.0000     STORAGE                          
      CSUB-CGELASTIC =     5572743.0731        CSUB-CGELASTIC =         299.7933     CSUB                             
        CSUB-ELASTIC =           0.0000          CSUB-ELASTIC =           0.0000     CSUB                             
      CSUB-INELASTIC =           0.0000        CSUB-INELASTIC =           0.0000     CSUB                             
      CSUB-WATERCOMP =           0.0000        CSUB-WATERCOMP =           0.0000     CSUB                             
                 WEL =  2629800000.0000                   WEL =      144000.0000     WEL_0                            
                 RCH =           0.0000                   RCH =           0.0000     RCH_0                            
                 CHD =   648328806.5749                   CHD =       29832.1690     CHD_0                            

           TOTAL OUT =  3283701549.6480             TOTAL OUT =      174131.9623

            IN - OUT =       3.4113E-03              IN - OUT =       2.4308E-07

 PERCENT DISCREPANCY =           0.00     PERCENT DISCREPANCY =           0.00




         TIME SUMMARY AT END OF TIME STEP   50 IN STRESS PERIOD    2
                    SECONDS     MINUTES      HOURS       DAYS        YEARS
                    -----------------------------------------------------------
   TIME STEP LENGTH 3.15576E+07 5.25960E+05  8766.0      365.25      1.0000    
 STRESS PERIOD TIME 1.57788E+09 2.62980E+07 4.38300E+05  18262.      50.000    
         TOTAL TIME 1.57788E+09 2.62980E+07 4.38300E+05  18262.      50.000    


end timestep


start timestep kper="2" kstp="51" mode="normal"

 UBDSV1 SAVING           STO-SS ON UNIT   1020 AT TIME STEP     51, STRESS PERIOD      2
 UBDSV1 SAVING           STO-SY ON UNIT   1020 AT TIME STEP     51, STRESS PERIOD      2
 UBDSV1 SAVING     FLOW-JA-FACE ON UNIT   1020 AT TIME STEP     51, STRESS PERIOD      2
 UBDSV06 SAVING       DATA-SPDIS IN MODEL EX-GWF-CSUB-P04  PACKAGE NPF             CONNECTED TO MODEL EX-GWF-CSUB-P04  PACKAGE NPF              ON UNIT   1020 AT TIME STEP     51, STRESS PERIOD      2
 UBDSV1 SAVING  CSUB-CGELASTIC  ON UNIT   1020 AT TIME STEP     51, STRESS PERIOD      2
 UBDSV06 SAVING    CSUB-ELASTIC  IN MODEL EX-GWF-CSUB-P04  PACKAGE EX-GWF-CSUB-P04 CONNECTED TO MODEL EX-GWF-CSUB-P04  PACKAGE CSUB             ON UNIT   1020 AT TIME STEP     51, STRESS PERIOD      2
 UBDSV06 SAVING  CSUB-INELASTIC  IN MODEL EX-GWF-CSUB-P04  PACKAGE EX-GWF-CSUB-P04 CONNECTED TO MODEL EX-GWF-CSUB-P04  PACKAGE CSUB             ON UNIT   1020 AT TIME STEP     51, STRESS PERIOD      2
 UBDSV1 SAVING  CSUB-WATERCOMP  ON UNIT   1020 AT TIME STEP     51, STRESS PERIOD      2
 UBDSV06 SAVING              WEL IN MODEL EX-GWF-CSUB-P04  PACKAGE EX-GWF-CSUB-P04 CONNECTED TO MODEL EX-GWF-CSUB-P04  PACKAGE WEL_0            ON UNIT   1020 AT TIME STEP     51, STRESS PERIOD      2
 UBDSV06 SAVING              RCH IN MODEL EX-GWF-CSUB-P04  PACKAGE EX-GWF-CSUB-P04 CONNECTED TO MODEL EX-GWF-CSUB-P04  PACKAGE RCH_0            ON UNIT   1020 AT TIME STEP     51, STRESS PERIOD      2
 UBDSV06 SAVING              CHD IN MODEL EX-GWF-CSUB-P04  PACKAGE EX-GWF-CSUB-P04 CONNECTED TO MODEL EX-GWF-CSUB-P04  PACKAGE CHD_0            ON UNIT   1020 AT TIME STEP     51, STRESS PERIOD      2

 HEAD WILL BE SAVED ON UNIT 1021 AT END OF TIME STEP   51, STRESS PERIOD    2


  VOLUME BUDGET FOR ENTIRE MODEL AT END OF TIME STEP   51, STRESS PERIOD   2
  ---------------------------------------------------------------------------------------------------

     CUMULATIVE VOLUME      L**3       RATES FOR THIS TIME STEP      L**3/T          PACKAGE NAME    
     ------------------                 ------------------------                     ----------------

           IN:                                      IN:
           ---                                      ---
              STO-SS =           0.0000                STO-SS =           0.0000     STORAGE                          
              STO-SY =  2571544881.7498                STO-SY =      132161.8161     STORAGE                          
      CSUB-CGELASTIC =     6013092.5579        CSUB-CGELASTIC =         298.2963     CSUB                             
        CSUB-ELASTIC =    18452084.7498          CSUB-ELASTIC =         859.4705     CSUB                             
      CSUB-INELASTIC =     4235660.5473        CSUB-INELASTIC =         501.5203     CSUB                             
      CSUB-WATERCOMP =     9308605.5035        CSUB-WATERCOMP =         464.3874     CSUB                             
                 WEL =           0.0000                   WEL =           0.0000     WEL_0                            
                 RCH =   737658900.0000                   RCH =       39600.0000     RCH_0                            
                 CHD =           0.0000                   CHD =           0.0000     CHD_0                            

            TOTAL IN =  3347213225.1084              TOTAL IN =      173885.4906

          OUT:                                     OUT:
          ----                                     ----
              STO-SS =           0.0000                STO-SS =           0.0000     STORAGE                          
              STO-SY =           0.0000                STO-SY =           0.0000     STORAGE                          
      CSUB-CGELASTIC =     5682120.4420        CSUB-CGELASTIC =         299.4589     CSUB                             
        CSUB-ELASTIC =           0.0000          CSUB-ELASTIC =           0.0000     CSUB                             
      CSUB-INELASTIC =           0.0000        CSUB-INELASTIC =           0.0000     CSUB                             
      CSUB-WATERCOMP =           0.0000        CSUB-WATERCOMP =           0.0000     CSUB                             
                 WEL =  2682396000.0000                   WEL =      144000.0000     WEL_0                            
                 RCH =           0.0000                   RCH =           0.0000     RCH_0                            
                 CHD =   659135104.6629                   CHD =       29586.0317     CHD_0                            

           TOTAL OUT =  3347213225.1049             TOTAL OUT =      173885.4906

            IN - OUT =       3.4919E-03              IN - OUT =       2.1941E-07

 PERCENT DISCREPANCY =           0.00     PERCENT DISCREPANCY =           0.00




         TIME SUMMARY AT END OF TIME STEP   51 IN STRESS PERIOD    2
                    SECONDS     MINUTES      HOURS       DAYS        YEARS
                    -----------------------------------------------------------
   TIME STEP LENGTH 3.15576E+07 5.25960E+05  8766.0      365.25      1.0000    
 STRESS PERIOD TIME 1.60944E+09 2.68240E+07 4.47066E+05  18628.      51.000    
         TOTAL TIME 1.60944E+09 2.68240E+07 4.47066E+05  18628.      51.000    


end timestep


start timestep kper="2" kstp="52" mode="normal"

 UBDSV1 SAVING           STO-SS ON UNIT   1020 AT TIME STEP     52, STRESS PERIOD      2
 UBDSV1 SAVING           STO-SY ON UNIT   1020 AT TIME STEP     52, STRESS PERIOD      2
 UBDSV1 SAVING     FLOW-JA-FACE ON UNIT   1020 AT TIME STEP     52, STRESS PERIOD      2
 UBDSV06 SAVING       DATA-SPDIS IN MODEL EX-GWF-CSUB-P04  PACKAGE NPF             CONNECTED TO MODEL EX-GWF-CSUB-P04  PACKAGE NPF              ON UNIT   1020 AT TIME STEP     52, STRESS PERIOD      2
 UBDSV1 SAVING  CSUB-CGELASTIC  ON UNIT   1020 AT TIME STEP     52, STRESS PERIOD      2
 UBDSV06 SAVING    CSUB-ELASTIC  IN MODEL EX-GWF-CSUB-P04  PACKAGE EX-GWF-CSUB-P04 CONNECTED TO MODEL EX-GWF-CSUB-P04  PACKAGE CSUB             ON UNIT   1020 AT TIME STEP     52, STRESS PERIOD      2
 UBDSV06 SAVING  CSUB-INELASTIC  IN MODEL EX-GWF-CSUB-P04  PACKAGE EX-GWF-CSUB-P04 CONNECTED TO MODEL EX-GWF-CSUB-P04  PACKAGE CSUB             ON UNIT   1020 AT TIME STEP     52, STRESS PERIOD      2
 UBDSV1 SAVING  CSUB-WATERCOMP  ON UNIT   1020 AT TIME STEP     52, STRESS PERIOD      2
 UBDSV06 SAVING              WEL IN MODEL EX-GWF-CSUB-P04  PACKAGE EX-GWF-CSUB-P04 CONNECTED TO MODEL EX-GWF-CSUB-P04  PACKAGE WEL_0            ON UNIT   1020 AT TIME STEP     52, STRESS PERIOD      2
 UBDSV06 SAVING              RCH IN MODEL EX-GWF-CSUB-P04  PACKAGE EX-GWF-CSUB-P04 CONNECTED TO MODEL EX-GWF-CSUB-P04  PACKAGE RCH_0            ON UNIT   1020 AT TIME STEP     52, STRESS PERIOD      2
 UBDSV06 SAVING              CHD IN MODEL EX-GWF-CSUB-P04  PACKAGE EX-GWF-CSUB-P04 CONNECTED TO MODEL EX-GWF-CSUB-P04  PACKAGE CHD_0            ON UNIT   1020 AT TIME STEP     52, STRESS PERIOD      2

 HEAD WILL BE SAVED ON UNIT 1021 AT END OF TIME STEP   52, STRESS PERIOD    2


  VOLUME BUDGET FOR ENTIRE MODEL AT END OF TIME STEP   52, STRESS PERIOD   2
  ---------------------------------------------------------------------------------------------------

     CUMULATIVE VOLUME      L**3       RATES FOR THIS TIME STEP      L**3/T          PACKAGE NAME    
     ------------------                 ------------------------                     ----------------

           IN:                                      IN:
           ---                                      ---
              STO-SS =           0.0000                STO-SS =           0.0000     STORAGE                          
              STO-SY =  2619714437.9318                STO-SY =      131881.0573     STORAGE                          
      CSUB-CGELASTIC =     6121778.4079        CSUB-CGELASTIC =         297.5656     CSUB                             
        CSUB-ELASTIC =    18763790.6000          CSUB-ELASTIC =         853.4041     CSUB                             
      CSUB-INELASTIC =     4434507.3485        CSUB-INELASTIC =         544.4129     CSUB                             
      CSUB-WATERCOMP =     9477788.7203        CSUB-WATERCOMP =         463.1984     CSUB                             
                 WEL =           0.0000                   WEL =           0.0000     WEL_0                            
                 RCH =   752122800.0000                   RCH =       39600.0000     RCH_0                            
                 CHD =           0.0000                   CHD =           0.0000     CHD_0                            

            TOTAL IN =  3410635103.0086              TOTAL IN =      173639.6383

          OUT:                                     OUT:
          ----                                     ----
              STO-SS =           0.0000                STO-SS =           0.0000     STORAGE                          
              STO-SY =           0.0000                STO-SY =           0.0000     STORAGE                          
      CSUB-CGELASTIC =     5791370.0136        CSUB-CGELASTIC =         299.1090     CSUB                             
        CSUB-ELASTIC =           0.0000          CSUB-ELASTIC =           0.0000     CSUB                             
      CSUB-INELASTIC =           0.0000        CSUB-INELASTIC =           0.0000     CSUB                             
      CSUB-WATERCOMP =           0.0000        CSUB-WATERCOMP =           0.0000     CSUB                             
                 WEL =  2734992000.0000                   WEL =      144000.0000     WEL_0                            
                 RCH =           0.0000                   RCH =           0.0000     RCH_0                            
                 CHD =   669851732.9914                   CHD =       29340.5293     CHD_0                            

           TOTAL OUT =  3410635103.0050             TOTAL OUT =      173639.6383

            IN - OUT =       3.6120E-03              IN - OUT =       3.2774E-07

 PERCENT DISCREPANCY =           0.00     PERCENT DISCREPANCY =           0.00




         TIME SUMMARY AT END OF TIME STEP   52 IN STRESS PERIOD    2
                    SECONDS     MINUTES      HOURS       DAYS        YEARS
                    -----------------------------------------------------------
   TIME STEP LENGTH 3.15576E+07 5.25960E+05  8766.0      365.25      1.0000    
 STRESS PERIOD TIME 1.64100E+09 2.73499E+07 4.55832E+05  18993.      52.000    
         TOTAL TIME 1.64100E+09 2.73499E+07 4.55832E+05  18993.      52.000    


end timestep


start timestep kper="2" kstp="53" mode="normal"

 UBDSV1 SAVING           STO-SS ON UNIT   1020 AT TIME STEP     53, STRESS PERIOD      2
 UBDSV1 SAVING           STO-SY ON UNIT   1020 AT TIME STEP     53, STRESS PERIOD      2
 UBDSV1 SAVING     FLOW-JA-FACE ON UNIT   1020 AT TIME STEP     53, STRESS PERIOD      2
 UBDSV06 SAVING       DATA-SPDIS IN MODEL EX-GWF-CSUB-P04  PACKAGE NPF             CONNECTED TO MODEL EX-GWF-CSUB-P04  PACKAGE NPF              ON UNIT   1020 AT TIME STEP     53, STRESS PERIOD      2
 UBDSV1 SAVING  CSUB-CGELASTIC  ON UNIT   1020 AT TIME STEP     53, STRESS PERIOD      2
 UBDSV06 SAVING    CSUB-ELASTIC  IN MODEL EX-GWF-CSUB-P04  PACKAGE EX-GWF-CSUB-P04 CONNECTED TO MODEL EX-GWF-CSUB-P04  PACKAGE CSUB             ON UNIT   1020 AT TIME STEP     53, STRESS PERIOD      2
 UBDSV06 SAVING  CSUB-INELASTIC  IN MODEL EX-GWF-CSUB-P04  PACKAGE EX-GWF-CSUB-P04 CONNECTED TO MODEL EX-GWF-CSUB-P04  PACKAGE CSUB             ON UNIT   1020 AT TIME STEP     53, STRESS PERIOD      2
 UBDSV1 SAVING  CSUB-WATERCOMP  ON UNIT   1020 AT TIME STEP     53, STRESS PERIOD      2
 UBDSV06 SAVING              WEL IN MODEL EX-GWF-CSUB-P04  PACKAGE EX-GWF-CSUB-P04 CONNECTED TO MODEL EX-GWF-CSUB-P04  PACKAGE WEL_0            ON UNIT   1020 AT TIME STEP     53, STRESS PERIOD      2
 UBDSV06 SAVING              RCH IN MODEL EX-GWF-CSUB-P04  PACKAGE EX-GWF-CSUB-P04 CONNECTED TO MODEL EX-GWF-CSUB-P04  PACKAGE RCH_0            ON UNIT   1020 AT TIME STEP     53, STRESS PERIOD      2
 UBDSV06 SAVING              CHD IN MODEL EX-GWF-CSUB-P04  PACKAGE EX-GWF-CSUB-P04 CONNECTED TO MODEL EX-GWF-CSUB-P04  PACKAGE CHD_0            ON UNIT   1020 AT TIME STEP     53, STRESS PERIOD      2

 HEAD WILL BE SAVED ON UNIT 1021 AT END OF TIME STEP   53, STRESS PERIOD    2


  VOLUME BUDGET FOR ENTIRE MODEL AT END OF TIME STEP   53, STRESS PERIOD   2
  ---------------------------------------------------------------------------------------------------

     CUMULATIVE VOLUME      L**3       RATES FOR THIS TIME STEP      L**3/T          PACKAGE NAME    
     ------------------                 ------------------------                     ----------------

           IN:                                      IN:
           ---                                      ---
              STO-SS =           0.0000                STO-SS =           0.0000     STORAGE                          
              STO-SY =  2667793171.5588                STO-SY =      131632.3987     STORAGE                          
      CSUB-CGELASTIC =     6230203.2542        CSUB-CGELASTIC =         296.8511     CSUB                             
        CSUB-ELASTIC =    19073800.1281          CSUB-ELASTIC =         848.7598     CSUB                             
      CSUB-INELASTIC =     4637027.4916        CSUB-INELASTIC =         554.4699     CSUB                             
      CSUB-WATERCOMP =     9646551.1223        CSUB-WATERCOMP =         462.0463     CSUB                             
                 WEL =           0.0000                   WEL =           0.0000     WEL_0                            
                 RCH =   766586700.0000                   RCH =       39600.0000     RCH_0                            
                 CHD =           0.0000                   CHD =           0.0000     CHD_0                            

            TOTAL IN =  3473967453.5551              TOTAL IN =      173394.5258

          OUT:                                     OUT:
          ----                                     ----
              STO-SS =           0.0000                STO-SS =           0.0000     STORAGE                          
              STO-SY =           0.0000                STO-SY =           0.0000     STORAGE                          
      CSUB-CGELASTIC =     5900518.5415        CSUB-CGELASTIC =         298.8324     CSUB                             
        CSUB-ELASTIC =           0.0000          CSUB-ELASTIC =           0.0000     CSUB                             
      CSUB-INELASTIC =           0.0000        CSUB-INELASTIC =           0.0000     CSUB                             
      CSUB-WATERCOMP =           0.0000        CSUB-WATERCOMP =           0.0000     CSUB                             
                 WEL =  2787588000.0000                   WEL =      144000.0000     WEL_0                            
                 RCH =           0.0000                   RCH =           0.0000     RCH_0                            
                 CHD =   680478935.0099                   CHD =       29095.6934     CHD_0                            

           TOTAL OUT =  3473967453.5514             TOTAL OUT =      173394.5258

            IN - OUT =       3.7527E-03              IN - OUT =       3.8688E-07

 PERCENT DISCREPANCY =           0.00     PERCENT DISCREPANCY =           0.00




         TIME SUMMARY AT END OF TIME STEP   53 IN STRESS PERIOD    2
                    SECONDS     MINUTES      HOURS       DAYS        YEARS
                    -----------------------------------------------------------
   TIME STEP LENGTH 3.15576E+07 5.25960E+05  8766.0      365.25      1.0000    
 STRESS PERIOD TIME 1.67255E+09 2.78759E+07 4.64598E+05  19358.      53.000    
         TOTAL TIME 1.67255E+09 2.78759E+07 4.64598E+05  19358.      53.000    


end timestep


start timestep kper="2" kstp="54" mode="normal"

 UBDSV1 SAVING           STO-SS ON UNIT   1020 AT TIME STEP     54, STRESS PERIOD      2
 UBDSV1 SAVING           STO-SY ON UNIT   1020 AT TIME STEP     54, STRESS PERIOD      2
 UBDSV1 SAVING     FLOW-JA-FACE ON UNIT   1020 AT TIME STEP     54, STRESS PERIOD      2
 UBDSV06 SAVING       DATA-SPDIS IN MODEL EX-GWF-CSUB-P04  PACKAGE NPF             CONNECTED TO MODEL EX-GWF-CSUB-P04  PACKAGE NPF              ON UNIT   1020 AT TIME STEP     54, STRESS PERIOD      2
 UBDSV1 SAVING  CSUB-CGELASTIC  ON UNIT   1020 AT TIME STEP     54, STRESS PERIOD      2
 UBDSV06 SAVING    CSUB-ELASTIC  IN MODEL EX-GWF-CSUB-P04  PACKAGE EX-GWF-CSUB-P04 CONNECTED TO MODEL EX-GWF-CSUB-P04  PACKAGE CSUB             ON UNIT   1020 AT TIME STEP     54, STRESS PERIOD      2
 UBDSV06 SAVING  CSUB-INELASTIC  IN MODEL EX-GWF-CSUB-P04  PACKAGE EX-GWF-CSUB-P04 CONNECTED TO MODEL EX-GWF-CSUB-P04  PACKAGE CSUB             ON UNIT   1020 AT TIME STEP     54, STRESS PERIOD      2
 UBDSV1 SAVING  CSUB-WATERCOMP  ON UNIT   1020 AT TIME STEP     54, STRESS PERIOD      2
 UBDSV06 SAVING              WEL IN MODEL EX-GWF-CSUB-P04  PACKAGE EX-GWF-CSUB-P04 CONNECTED TO MODEL EX-GWF-CSUB-P04  PACKAGE WEL_0            ON UNIT   1020 AT TIME STEP     54, STRESS PERIOD      2
 UBDSV06 SAVING              RCH IN MODEL EX-GWF-CSUB-P04  PACKAGE EX-GWF-CSUB-P04 CONNECTED TO MODEL EX-GWF-CSUB-P04  PACKAGE RCH_0            ON UNIT   1020 AT TIME STEP     54, STRESS PERIOD      2
 UBDSV06 SAVING              CHD IN MODEL EX-GWF-CSUB-P04  PACKAGE EX-GWF-CSUB-P04 CONNECTED TO MODEL EX-GWF-CSUB-P04  PACKAGE CHD_0            ON UNIT   1020 AT TIME STEP     54, STRESS PERIOD      2

 HEAD WILL BE SAVED ON UNIT 1021 AT END OF TIME STEP   54, STRESS PERIOD    2


  VOLUME BUDGET FOR ENTIRE MODEL AT END OF TIME STEP   54, STRESS PERIOD   2
  ---------------------------------------------------------------------------------------------------

     CUMULATIVE VOLUME      L**3       RATES FOR THIS TIME STEP      L**3/T          PACKAGE NAME    
     ------------------                 ------------------------                     ----------------

           IN:                                      IN:
           ---                                      ---
              STO-SS =           0.0000                STO-SS =           0.0000     STORAGE                          
              STO-SY =  2715776903.0982                STO-SY =      131372.2972     STORAGE                          
      CSUB-CGELASTIC =     6338349.6619        CSUB-CGELASTIC =         296.0887     CSUB                             
        CSUB-ELASTIC =    19381889.8334          CSUB-ELASTIC =         843.5036     CSUB                             
      CSUB-INELASTIC =     4847906.9966        CSUB-INELASTIC =         577.3566     CSUB                             
      CSUB-WATERCOMP =     9814871.1405        CSUB-WATERCOMP =         460.8351     CSUB                             
                 WEL =           0.0000                   WEL =           0.0000     WEL_0                            
                 RCH =   781050600.0000                   RCH =       39600.0000     RCH_0                            
                 CHD =           0.0000                   CHD =           0.0000     CHD_0                            

            TOTAL IN =  3537210520.7305              TOTAL IN =      173150.0812

          OUT:                                     OUT:
          ----                                     ----
              STO-SS =           0.0000                STO-SS =           0.0000     STORAGE                          
              STO-SY =           0.0000                STO-SY =           0.0000     STORAGE                          
      CSUB-CGELASTIC =     6009555.3042        CSUB-CGELASTIC =         298.5264     CSUB                             
        CSUB-ELASTIC =           0.0000          CSUB-ELASTIC =           0.0000     CSUB                             
      CSUB-INELASTIC =           0.0000        CSUB-INELASTIC =           0.0000     CSUB                             
      CSUB-WATERCOMP =           0.0000        CSUB-WATERCOMP =           0.0000     CSUB                             
                 WEL =  2840184000.0000                   WEL =      144000.0000     WEL_0                            
                 RCH =           0.0000                   RCH =           0.0000     RCH_0                            
                 CHD =   691016965.4224                   CHD =       28851.5549     CHD_0                            

           TOTAL OUT =  3537210520.7266             TOTAL OUT =      173150.0812

            IN - OUT =       3.9124E-03              IN - OUT =       4.3743E-07

 PERCENT DISCREPANCY =           0.00     PERCENT DISCREPANCY =           0.00




         TIME SUMMARY AT END OF TIME STEP   54 IN STRESS PERIOD    2
                    SECONDS     MINUTES      HOURS       DAYS        YEARS
                    -----------------------------------------------------------
   TIME STEP LENGTH 3.15576E+07 5.25960E+05  8766.0      365.25      1.0000    
 STRESS PERIOD TIME 1.70411E+09 2.84018E+07 4.73364E+05  19724.      54.000    
         TOTAL TIME 1.70411E+09 2.84018E+07 4.73364E+05  19724.      54.000    


end timestep


start timestep kper="2" kstp="55" mode="normal"

 UBDSV1 SAVING           STO-SS ON UNIT   1020 AT TIME STEP     55, STRESS PERIOD      2
 UBDSV1 SAVING           STO-SY ON UNIT   1020 AT TIME STEP     55, STRESS PERIOD      2
 UBDSV1 SAVING     FLOW-JA-FACE ON UNIT   1020 AT TIME STEP     55, STRESS PERIOD      2
 UBDSV06 SAVING       DATA-SPDIS IN MODEL EX-GWF-CSUB-P04  PACKAGE NPF             CONNECTED TO MODEL EX-GWF-CSUB-P04  PACKAGE NPF              ON UNIT   1020 AT TIME STEP     55, STRESS PERIOD      2
 UBDSV1 SAVING  CSUB-CGELASTIC  ON UNIT   1020 AT TIME STEP     55, STRESS PERIOD      2
 UBDSV06 SAVING    CSUB-ELASTIC  IN MODEL EX-GWF-CSUB-P04  PACKAGE EX-GWF-CSUB-P04 CONNECTED TO MODEL EX-GWF-CSUB-P04  PACKAGE CSUB             ON UNIT   1020 AT TIME STEP     55, STRESS PERIOD      2
 UBDSV06 SAVING  CSUB-INELASTIC  IN MODEL EX-GWF-CSUB-P04  PACKAGE EX-GWF-CSUB-P04 CONNECTED TO MODEL EX-GWF-CSUB-P04  PACKAGE CSUB             ON UNIT   1020 AT TIME STEP     55, STRESS PERIOD      2
 UBDSV1 SAVING  CSUB-WATERCOMP  ON UNIT   1020 AT TIME STEP     55, STRESS PERIOD      2
 UBDSV06 SAVING              WEL IN MODEL EX-GWF-CSUB-P04  PACKAGE EX-GWF-CSUB-P04 CONNECTED TO MODEL EX-GWF-CSUB-P04  PACKAGE WEL_0            ON UNIT   1020 AT TIME STEP     55, STRESS PERIOD      2
 UBDSV06 SAVING              RCH IN MODEL EX-GWF-CSUB-P04  PACKAGE EX-GWF-CSUB-P04 CONNECTED TO MODEL EX-GWF-CSUB-P04  PACKAGE RCH_0            ON UNIT   1020 AT TIME STEP     55, STRESS PERIOD      2
 UBDSV06 SAVING              CHD IN MODEL EX-GWF-CSUB-P04  PACKAGE EX-GWF-CSUB-P04 CONNECTED TO MODEL EX-GWF-CSUB-P04  PACKAGE CHD_0            ON UNIT   1020 AT TIME STEP     55, STRESS PERIOD      2

 HEAD WILL BE SAVED ON UNIT 1021 AT END OF TIME STEP   55, STRESS PERIOD    2


  VOLUME BUDGET FOR ENTIRE MODEL AT END OF TIME STEP   55, STRESS PERIOD   2
  ---------------------------------------------------------------------------------------------------

     CUMULATIVE VOLUME      L**3       RATES FOR THIS TIME STEP      L**3/T          PACKAGE NAME    
     ------------------                 ------------------------                     ----------------

           IN:                                      IN:
           ---                                      ---
              STO-SS =           0.0000                STO-SS =           0.0000     STORAGE                          
              STO-SY =  2763669500.3594                STO-SY =      131122.7851     STORAGE                          
      CSUB-CGELASTIC =     6446247.1126        CSUB-CGELASTIC =         295.4071     CSUB                             
        CSUB-ELASTIC =    19688295.6700          CSUB-ELASTIC =         838.8935     CSUB                             
      CSUB-INELASTIC =     5063249.2866        CSUB-INELASTIC =         589.5751     CSUB                             
      CSUB-WATERCOMP =     9982785.5958        CSUB-WATERCOMP =         459.7247     CSUB                             
                 WEL =           0.0000                   WEL =           0.0000     WEL_0                            
                 RCH =   795514500.0000                   RCH =       39600.0000     RCH_0                            
                 CHD =           0.0000                   CHD =           0.0000     CHD_0                            

            TOTAL IN =  3600364578.0243              TOTAL IN =      172906.3855

          OUT:                                     OUT:
          ----                                     ----
              STO-SS =           0.0000                STO-SS =           0.0000     STORAGE                          
              STO-SY =           0.0000                STO-SY =           0.0000     STORAGE                          
      CSUB-CGELASTIC =     6118488.5023        CSUB-CGELASTIC =         298.2428     CSUB                             
        CSUB-ELASTIC =           0.0000          CSUB-ELASTIC =           0.0000     CSUB                             
      CSUB-INELASTIC =           0.0000        CSUB-INELASTIC =           0.0000     CSUB                             
      CSUB-WATERCOMP =           0.0000        CSUB-WATERCOMP =           0.0000     CSUB                             
                 WEL =  2892780000.0000                   WEL =      144000.0000     WEL_0                            
                 RCH =           0.0000                   RCH =           0.0000     RCH_0                            
                 CHD =   701466089.5180                   CHD =       28608.1426     CHD_0                            

           TOTAL OUT =  3600364578.0202             TOTAL OUT =      172906.3855

            IN - OUT =       4.0498E-03              IN - OUT =       3.7524E-07

 PERCENT DISCREPANCY =           0.00     PERCENT DISCREPANCY =           0.00




         TIME SUMMARY AT END OF TIME STEP   55 IN STRESS PERIOD    2
                    SECONDS     MINUTES      HOURS       DAYS        YEARS
                    -----------------------------------------------------------
   TIME STEP LENGTH 3.15576E+07 5.25960E+05  8766.0      365.25      1.0000    
 STRESS PERIOD TIME 1.73567E+09 2.89278E+07 4.82130E+05  20089.      55.000    
         TOTAL TIME 1.73567E+09 2.89278E+07 4.82130E+05  20089.      55.000    


end timestep


start timestep kper="2" kstp="56" mode="normal"

 UBDSV1 SAVING           STO-SS ON UNIT   1020 AT TIME STEP     56, STRESS PERIOD      2
 UBDSV1 SAVING           STO-SY ON UNIT   1020 AT TIME STEP     56, STRESS PERIOD      2
 UBDSV1 SAVING     FLOW-JA-FACE ON UNIT   1020 AT TIME STEP     56, STRESS PERIOD      2
 UBDSV06 SAVING       DATA-SPDIS IN MODEL EX-GWF-CSUB-P04  PACKAGE NPF             CONNECTED TO MODEL EX-GWF-CSUB-P04  PACKAGE NPF              ON UNIT   1020 AT TIME STEP     56, STRESS PERIOD      2
 UBDSV1 SAVING  CSUB-CGELASTIC  ON UNIT   1020 AT TIME STEP     56, STRESS PERIOD      2
 UBDSV06 SAVING    CSUB-ELASTIC  IN MODEL EX-GWF-CSUB-P04  PACKAGE EX-GWF-CSUB-P04 CONNECTED TO MODEL EX-GWF-CSUB-P04  PACKAGE CSUB             ON UNIT   1020 AT TIME STEP     56, STRESS PERIOD      2
 UBDSV06 SAVING  CSUB-INELASTIC  IN MODEL EX-GWF-CSUB-P04  PACKAGE EX-GWF-CSUB-P04 CONNECTED TO MODEL EX-GWF-CSUB-P04  PACKAGE CSUB             ON UNIT   1020 AT TIME STEP     56, STRESS PERIOD      2
 UBDSV1 SAVING  CSUB-WATERCOMP  ON UNIT   1020 AT TIME STEP     56, STRESS PERIOD      2
 UBDSV06 SAVING              WEL IN MODEL EX-GWF-CSUB-P04  PACKAGE EX-GWF-CSUB-P04 CONNECTED TO MODEL EX-GWF-CSUB-P04  PACKAGE WEL_0            ON UNIT   1020 AT TIME STEP     56, STRESS PERIOD      2
 UBDSV06 SAVING              RCH IN MODEL EX-GWF-CSUB-P04  PACKAGE EX-GWF-CSUB-P04 CONNECTED TO MODEL EX-GWF-CSUB-P04  PACKAGE RCH_0            ON UNIT   1020 AT TIME STEP     56, STRESS PERIOD      2
 UBDSV06 SAVING              CHD IN MODEL EX-GWF-CSUB-P04  PACKAGE EX-GWF-CSUB-P04 CONNECTED TO MODEL EX-GWF-CSUB-P04  PACKAGE CHD_0            ON UNIT   1020 AT TIME STEP     56, STRESS PERIOD      2

 HEAD WILL BE SAVED ON UNIT 1021 AT END OF TIME STEP   56, STRESS PERIOD    2


  VOLUME BUDGET FOR ENTIRE MODEL AT END OF TIME STEP   56, STRESS PERIOD   2
  ---------------------------------------------------------------------------------------------------

     CUMULATIVE VOLUME      L**3       RATES FOR THIS TIME STEP      L**3/T          PACKAGE NAME    
     ------------------                 ------------------------                     ----------------

           IN:                                      IN:
           ---                                      ---
              STO-SS =           0.0000                STO-SS =           0.0000     STORAGE                          
              STO-SY =  2811457637.1609                STO-SY =      130836.7880     STORAGE                          
      CSUB-CGELASTIC =     6553861.4159        CSUB-CGELASTIC =         294.6319     CSUB                             
        CSUB-ELASTIC =    19992366.5376          CSUB-ELASTIC =         832.5007     CSUB                             
      CSUB-INELASTIC =     5297350.1115        CSUB-INELASTIC =         640.9331     CSUB                             
      CSUB-WATERCOMP =    10150249.5930        CSUB-WATERCOMP =         458.4914     CSUB                             
                 WEL =           0.0000                   WEL =           0.0000     WEL_0                            
                 RCH =   809978400.0000                   RCH =       39600.0000     RCH_0                            
                 CHD =           0.0000                   CHD =           0.0000     CHD_0                            

            TOTAL IN =  3663429864.8189              TOTAL IN =      172663.3451

          OUT:                                     OUT:
          ----                                     ----
              STO-SS =           0.0000                STO-SS =           0.0000     STORAGE                          
              STO-SY =           0.0000                STO-SY =           0.0000     STORAGE                          
      CSUB-CGELASTIC =     6227285.5181        CSUB-CGELASTIC =         297.8700     CSUB                             
        CSUB-ELASTIC =           0.0000          CSUB-ELASTIC =           0.0000     CSUB                             
      CSUB-INELASTIC =           0.0000        CSUB-INELASTIC =           0.0000     CSUB                             
      CSUB-WATERCOMP =           0.0000        CSUB-WATERCOMP =           0.0000     CSUB                             
                 WEL =  2945376000.0000                   WEL =      144000.0000     WEL_0                            
                 RCH =           0.0000                   RCH =           0.0000     RCH_0                            
                 CHD =   711826579.2965                   CHD =       28365.4751     CHD_0                            

           TOTAL OUT =  3663429864.8147             TOTAL OUT =      172663.3451

            IN - OUT =       4.2124E-03              IN - OUT =       4.4491E-07

 PERCENT DISCREPANCY =           0.00     PERCENT DISCREPANCY =           0.00




         TIME SUMMARY AT END OF TIME STEP   56 IN STRESS PERIOD    2
                    SECONDS     MINUTES      HOURS       DAYS        YEARS
                    -----------------------------------------------------------
   TIME STEP LENGTH 3.15576E+07 5.25960E+05  8766.0      365.25      1.0000    
 STRESS PERIOD TIME 1.76723E+09 2.94538E+07 4.90896E+05  20454.      56.000    
         TOTAL TIME 1.76723E+09 2.94538E+07 4.90896E+05  20454.      56.000    


end timestep


start timestep kper="2" kstp="57" mode="normal"

 UBDSV1 SAVING           STO-SS ON UNIT   1020 AT TIME STEP     57, STRESS PERIOD      2
 UBDSV1 SAVING           STO-SY ON UNIT   1020 AT TIME STEP     57, STRESS PERIOD      2
 UBDSV1 SAVING     FLOW-JA-FACE ON UNIT   1020 AT TIME STEP     57, STRESS PERIOD      2
 UBDSV06 SAVING       DATA-SPDIS IN MODEL EX-GWF-CSUB-P04  PACKAGE NPF             CONNECTED TO MODEL EX-GWF-CSUB-P04  PACKAGE NPF              ON UNIT   1020 AT TIME STEP     57, STRESS PERIOD      2
 UBDSV1 SAVING  CSUB-CGELASTIC  ON UNIT   1020 AT TIME STEP     57, STRESS PERIOD      2
 UBDSV06 SAVING    CSUB-ELASTIC  IN MODEL EX-GWF-CSUB-P04  PACKAGE EX-GWF-CSUB-P04 CONNECTED TO MODEL EX-GWF-CSUB-P04  PACKAGE CSUB             ON UNIT   1020 AT TIME STEP     57, STRESS PERIOD      2
 UBDSV06 SAVING  CSUB-INELASTIC  IN MODEL EX-GWF-CSUB-P04  PACKAGE EX-GWF-CSUB-P04 CONNECTED TO MODEL EX-GWF-CSUB-P04  PACKAGE CSUB             ON UNIT   1020 AT TIME STEP     57, STRESS PERIOD      2
 UBDSV1 SAVING  CSUB-WATERCOMP  ON UNIT   1020 AT TIME STEP     57, STRESS PERIOD      2
 UBDSV06 SAVING              WEL IN MODEL EX-GWF-CSUB-P04  PACKAGE EX-GWF-CSUB-P04 CONNECTED TO MODEL EX-GWF-CSUB-P04  PACKAGE WEL_0            ON UNIT   1020 AT TIME STEP     57, STRESS PERIOD      2
 UBDSV06 SAVING              RCH IN MODEL EX-GWF-CSUB-P04  PACKAGE EX-GWF-CSUB-P04 CONNECTED TO MODEL EX-GWF-CSUB-P04  PACKAGE RCH_0            ON UNIT   1020 AT TIME STEP     57, STRESS PERIOD      2
 UBDSV06 SAVING              CHD IN MODEL EX-GWF-CSUB-P04  PACKAGE EX-GWF-CSUB-P04 CONNECTED TO MODEL EX-GWF-CSUB-P04  PACKAGE CHD_0            ON UNIT   1020 AT TIME STEP     57, STRESS PERIOD      2

 HEAD WILL BE SAVED ON UNIT 1021 AT END OF TIME STEP   57, STRESS PERIOD    2


  VOLUME BUDGET FOR ENTIRE MODEL AT END OF TIME STEP   57, STRESS PERIOD   2
  ---------------------------------------------------------------------------------------------------

     CUMULATIVE VOLUME      L**3       RATES FOR THIS TIME STEP      L**3/T          PACKAGE NAME    
     ------------------                 ------------------------                     ----------------

           IN:                                      IN:
           ---                                      ---
              STO-SS =           0.0000                STO-SS =           0.0000     STORAGE                          
              STO-SY =  2859153515.4115                STO-SY =      130584.1978     STORAGE                          
      CSUB-CGELASTIC =     6661219.9350        CSUB-CGELASTIC =         293.9316     CSUB                             
        CSUB-ELASTIC =    20294681.8016          CSUB-ELASTIC =         827.6941     CSUB                             
      CSUB-INELASTIC =     5537672.3238        CSUB-INELASTIC =         657.9664     CSUB                             
      CSUB-WATERCOMP =    10317299.4505        CSUB-WATERCOMP =         457.3576     CSUB                             
                 WEL =           0.0000                   WEL =           0.0000     WEL_0                            
                 RCH =   824442300.0000                   RCH =       39600.0000     RCH_0                            
                 CHD =           0.0000                   CHD =           0.0000     CHD_0                            

            TOTAL IN =  3726406688.9224              TOTAL IN =      172421.1474

          OUT:                                     OUT:
          ----                                     ----
              STO-SS =           0.0000                STO-SS =           0.0000     STORAGE                          
              STO-SY =           0.0000                STO-SY =           0.0000     STORAGE                          
      CSUB-CGELASTIC =     6335974.4757        CSUB-CGELASTIC =         297.5741     CSUB                             
        CSUB-ELASTIC =           0.0000          CSUB-ELASTIC =           0.0000     CSUB                             
      CSUB-INELASTIC =           0.0000        CSUB-INELASTIC =           0.0000     CSUB                             
      CSUB-WATERCOMP =           0.0000        CSUB-WATERCOMP =           0.0000     CSUB                             
                 WEL =  2997972000.0000                   WEL =      144000.0000     WEL_0                            
                 RCH =           0.0000                   RCH =           0.0000     RCH_0                            
                 CHD =   722098714.4424                   CHD =       28123.5733     CHD_0                            

           TOTAL OUT =  3726406688.9181             TOTAL OUT =      172421.1474

            IN - OUT =       4.3478E-03              IN - OUT =       3.7169E-07

 PERCENT DISCREPANCY =           0.00     PERCENT DISCREPANCY =           0.00




         TIME SUMMARY AT END OF TIME STEP   57 IN STRESS PERIOD    2
                    SECONDS     MINUTES      HOURS       DAYS        YEARS
                    -----------------------------------------------------------
   TIME STEP LENGTH 3.15576E+07 5.25960E+05  8766.0      365.25      1.0000    
 STRESS PERIOD TIME 1.79878E+09 2.99797E+07 4.99662E+05  20819.      57.000    
         TOTAL TIME 1.79878E+09 2.99797E+07 4.99662E+05  20819.      57.000    


end timestep


start timestep kper="2" kstp="58" mode="normal"

 UBDSV1 SAVING           STO-SS ON UNIT   1020 AT TIME STEP     58, STRESS PERIOD      2
 UBDSV1 SAVING           STO-SY ON UNIT   1020 AT TIME STEP     58, STRESS PERIOD      2
 UBDSV1 SAVING     FLOW-JA-FACE ON UNIT   1020 AT TIME STEP     58, STRESS PERIOD      2
 UBDSV06 SAVING       DATA-SPDIS IN MODEL EX-GWF-CSUB-P04  PACKAGE NPF             CONNECTED TO MODEL EX-GWF-CSUB-P04  PACKAGE NPF              ON UNIT   1020 AT TIME STEP     58, STRESS PERIOD      2
 UBDSV1 SAVING  CSUB-CGELASTIC  ON UNIT   1020 AT TIME STEP     58, STRESS PERIOD      2
 UBDSV06 SAVING    CSUB-ELASTIC  IN MODEL EX-GWF-CSUB-P04  PACKAGE EX-GWF-CSUB-P04 CONNECTED TO MODEL EX-GWF-CSUB-P04  PACKAGE CSUB             ON UNIT   1020 AT TIME STEP     58, STRESS PERIOD      2
 UBDSV06 SAVING  CSUB-INELASTIC  IN MODEL EX-GWF-CSUB-P04  PACKAGE EX-GWF-CSUB-P04 CONNECTED TO MODEL EX-GWF-CSUB-P04  PACKAGE CSUB             ON UNIT   1020 AT TIME STEP     58, STRESS PERIOD      2
 UBDSV1 SAVING  CSUB-WATERCOMP  ON UNIT   1020 AT TIME STEP     58, STRESS PERIOD      2
 UBDSV06 SAVING              WEL IN MODEL EX-GWF-CSUB-P04  PACKAGE EX-GWF-CSUB-P04 CONNECTED TO MODEL EX-GWF-CSUB-P04  PACKAGE WEL_0            ON UNIT   1020 AT TIME STEP     58, STRESS PERIOD      2
 UBDSV06 SAVING              RCH IN MODEL EX-GWF-CSUB-P04  PACKAGE EX-GWF-CSUB-P04 CONNECTED TO MODEL EX-GWF-CSUB-P04  PACKAGE RCH_0            ON UNIT   1020 AT TIME STEP     58, STRESS PERIOD      2
 UBDSV06 SAVING              CHD IN MODEL EX-GWF-CSUB-P04  PACKAGE EX-GWF-CSUB-P04 CONNECTED TO MODEL EX-GWF-CSUB-P04  PACKAGE CHD_0            ON UNIT   1020 AT TIME STEP     58, STRESS PERIOD      2

 HEAD WILL BE SAVED ON UNIT 1021 AT END OF TIME STEP   58, STRESS PERIOD    2


  VOLUME BUDGET FOR ENTIRE MODEL AT END OF TIME STEP   58, STRESS PERIOD   2
  ---------------------------------------------------------------------------------------------------

     CUMULATIVE VOLUME      L**3       RATES FOR THIS TIME STEP      L**3/T          PACKAGE NAME    
     ------------------                 ------------------------                     ----------------

           IN:                                      IN:
           ---                                      ---
              STO-SS =           0.0000                STO-SS =           0.0000     STORAGE                          
              STO-SY =  2906760710.8528                STO-SY =      130341.3975     STORAGE                          
      CSUB-CGELASTIC =     6768321.9006        CSUB-CGELASTIC =         293.2292     CSUB                             
        CSUB-ELASTIC =    20595385.5750          CSUB-ELASTIC =         823.2821     CSUB                             
      CSUB-INELASTIC =     5780790.0173        CSUB-INELASTIC =         665.6200     CSUB                             
      CSUB-WATERCOMP =    10483935.7830        CSUB-WATERCOMP =         456.2254     CSUB                             
                 WEL =           0.0000                   WEL =           0.0000     WEL_0                            
                 RCH =   838906200.0000                   RCH =       39600.0000     RCH_0                            
                 CHD =           0.0000                   CHD =           0.0000     CHD_0                            

            TOTAL IN =  3789295344.1287              TOTAL IN =      172179.7542

          OUT:                                     OUT:
          ----                                     ----
              STO-SS =           0.0000                STO-SS =           0.0000     STORAGE                          
              STO-SY =           0.0000                STO-SY =           0.0000     STORAGE                          
      CSUB-CGELASTIC =     6444563.0246        CSUB-CGELASTIC =         297.2992     CSUB                             
        CSUB-ELASTIC =           0.0000          CSUB-ELASTIC =           0.0000     CSUB                             
      CSUB-INELASTIC =           0.0000        CSUB-INELASTIC =           0.0000     CSUB                             
      CSUB-WATERCOMP =           0.0000        CSUB-WATERCOMP =           0.0000     CSUB                             
                 WEL =  3050568000.0000                   WEL =      144000.0000     WEL_0                            
                 RCH =           0.0000                   RCH =           0.0000     RCH_0                            
                 CHD =   732282781.0995                   CHD =       27882.4549     CHD_0                            

           TOTAL OUT =  3789295344.1241             TOTAL OUT =      172179.7542

            IN - OUT =       4.6091E-03              IN - OUT =       7.1438E-07

 PERCENT DISCREPANCY =           0.00     PERCENT DISCREPANCY =           0.00




         TIME SUMMARY AT END OF TIME STEP   58 IN STRESS PERIOD    2
                    SECONDS     MINUTES      HOURS       DAYS        YEARS
                    -----------------------------------------------------------
   TIME STEP LENGTH 3.15576E+07 5.25960E+05  8766.0      365.25      1.0000    
 STRESS PERIOD TIME 1.83034E+09 3.05057E+07 5.08428E+05  21184.      58.000    
         TOTAL TIME 1.83034E+09 3.05057E+07 5.08428E+05  21184.      58.000    


end timestep


start timestep kper="2" kstp="59" mode="normal"

 UBDSV1 SAVING           STO-SS ON UNIT   1020 AT TIME STEP     59, STRESS PERIOD      2
 UBDSV1 SAVING           STO-SY ON UNIT   1020 AT TIME STEP     59, STRESS PERIOD      2
 UBDSV1 SAVING     FLOW-JA-FACE ON UNIT   1020 AT TIME STEP     59, STRESS PERIOD      2
 UBDSV06 SAVING       DATA-SPDIS IN MODEL EX-GWF-CSUB-P04  PACKAGE NPF             CONNECTED TO MODEL EX-GWF-CSUB-P04  PACKAGE NPF              ON UNIT   1020 AT TIME STEP     59, STRESS PERIOD      2
 UBDSV1 SAVING  CSUB-CGELASTIC  ON UNIT   1020 AT TIME STEP     59, STRESS PERIOD      2
 UBDSV06 SAVING    CSUB-ELASTIC  IN MODEL EX-GWF-CSUB-P04  PACKAGE EX-GWF-CSUB-P04 CONNECTED TO MODEL EX-GWF-CSUB-P04  PACKAGE CSUB             ON UNIT   1020 AT TIME STEP     59, STRESS PERIOD      2
 UBDSV06 SAVING  CSUB-INELASTIC  IN MODEL EX-GWF-CSUB-P04  PACKAGE EX-GWF-CSUB-P04 CONNECTED TO MODEL EX-GWF-CSUB-P04  PACKAGE CSUB             ON UNIT   1020 AT TIME STEP     59, STRESS PERIOD      2
 UBDSV1 SAVING  CSUB-WATERCOMP  ON UNIT   1020 AT TIME STEP     59, STRESS PERIOD      2
 UBDSV06 SAVING              WEL IN MODEL EX-GWF-CSUB-P04  PACKAGE EX-GWF-CSUB-P04 CONNECTED TO MODEL EX-GWF-CSUB-P04  PACKAGE WEL_0            ON UNIT   1020 AT TIME STEP     59, STRESS PERIOD      2
 UBDSV06 SAVING              RCH IN MODEL EX-GWF-CSUB-P04  PACKAGE EX-GWF-CSUB-P04 CONNECTED TO MODEL EX-GWF-CSUB-P04  PACKAGE RCH_0            ON UNIT   1020 AT TIME STEP     59, STRESS PERIOD      2
 UBDSV06 SAVING              CHD IN MODEL EX-GWF-CSUB-P04  PACKAGE EX-GWF-CSUB-P04 CONNECTED TO MODEL EX-GWF-CSUB-P04  PACKAGE CHD_0            ON UNIT   1020 AT TIME STEP     59, STRESS PERIOD      2

 HEAD WILL BE SAVED ON UNIT 1021 AT END OF TIME STEP   59, STRESS PERIOD    2


  VOLUME BUDGET FOR ENTIRE MODEL AT END OF TIME STEP   59, STRESS PERIOD   2
  ---------------------------------------------------------------------------------------------------

     CUMULATIVE VOLUME      L**3       RATES FOR THIS TIME STEP      L**3/T          PACKAGE NAME    
     ------------------                 ------------------------                     ----------------

           IN:                                      IN:
           ---                                      ---
              STO-SS =           0.0000                STO-SS =           0.0000     STORAGE                          
              STO-SY =  2954276458.8766                STO-SY =      130091.0281     STORAGE                          
      CSUB-CGELASTIC =     6875157.6984        CSUB-CGELASTIC =         292.5005     CSUB                             
        CSUB-ELASTIC =    20894331.9631          CSUB-ELASTIC =         818.4706     CSUB                             
      CSUB-INELASTIC =     6029919.5049        CSUB-INELASTIC =         682.0794     CSUB                             
      CSUB-WATERCOMP =    10650146.7450        CSUB-WATERCOMP =         455.0608     CSUB                             
                 WEL =           0.0000                   WEL =           0.0000     WEL_0                            
                 RCH =   853370100.0000                   RCH =       39600.0000     RCH_0                            
                 CHD =           0.0000                   CHD =           0.0000     CHD_0                            

            TOTAL IN =  3852096114.7879              TOTAL IN =      171939.1394

          OUT:                                     OUT:
          ----                                     ----
              STO-SS =           0.0000                STO-SS =           0.0000     STORAGE                          
              STO-SY =           0.0000                STO-SY =           0.0000     STORAGE                          
      CSUB-CGELASTIC =     6553043.7742        CSUB-CGELASTIC =         297.0041     CSUB                             
        CSUB-ELASTIC =           0.0000          CSUB-ELASTIC =           0.0000     CSUB                             
      CSUB-INELASTIC =           0.0000        CSUB-INELASTIC =           0.0000     CSUB                             
      CSUB-WATERCOMP =           0.0000        CSUB-WATERCOMP =           0.0000     CSUB                             
                 WEL =  3103164000.0000                   WEL =      144000.0000     WEL_0                            
                 RCH =           0.0000                   RCH =           0.0000     RCH_0                            
                 CHD =   742379071.0088                   CHD =       27642.1353     CHD_0                            

           TOTAL OUT =  3852096114.7831             TOTAL OUT =      171939.1394

            IN - OUT =       4.8761E-03              IN - OUT =       7.3007E-07

 PERCENT DISCREPANCY =           0.00     PERCENT DISCREPANCY =           0.00




         TIME SUMMARY AT END OF TIME STEP   59 IN STRESS PERIOD    2
                    SECONDS     MINUTES      HOURS       DAYS        YEARS
                    -----------------------------------------------------------
   TIME STEP LENGTH 3.15576E+07 5.25960E+05  8766.0      365.25      1.0000    
 STRESS PERIOD TIME 1.86190E+09 3.10316E+07 5.17194E+05  21550.      59.000    
         TOTAL TIME 1.86190E+09 3.10316E+07 5.17194E+05  21550.      59.000    


end timestep


start timestep kper="2" kstp="60" mode="normal"

 UBDSV1 SAVING           STO-SS ON UNIT   1020 AT TIME STEP     60, STRESS PERIOD      2
 UBDSV1 SAVING           STO-SY ON UNIT   1020 AT TIME STEP     60, STRESS PERIOD      2
 UBDSV1 SAVING     FLOW-JA-FACE ON UNIT   1020 AT TIME STEP     60, STRESS PERIOD      2
 UBDSV06 SAVING       DATA-SPDIS IN MODEL EX-GWF-CSUB-P04  PACKAGE NPF             CONNECTED TO MODEL EX-GWF-CSUB-P04  PACKAGE NPF              ON UNIT   1020 AT TIME STEP     60, STRESS PERIOD      2
 UBDSV1 SAVING  CSUB-CGELASTIC  ON UNIT   1020 AT TIME STEP     60, STRESS PERIOD      2
 UBDSV06 SAVING    CSUB-ELASTIC  IN MODEL EX-GWF-CSUB-P04  PACKAGE EX-GWF-CSUB-P04 CONNECTED TO MODEL EX-GWF-CSUB-P04  PACKAGE CSUB             ON UNIT   1020 AT TIME STEP     60, STRESS PERIOD      2
 UBDSV06 SAVING  CSUB-INELASTIC  IN MODEL EX-GWF-CSUB-P04  PACKAGE EX-GWF-CSUB-P04 CONNECTED TO MODEL EX-GWF-CSUB-P04  PACKAGE CSUB             ON UNIT   1020 AT TIME STEP     60, STRESS PERIOD      2
 UBDSV1 SAVING  CSUB-WATERCOMP  ON UNIT   1020 AT TIME STEP     60, STRESS PERIOD      2
 UBDSV06 SAVING              WEL IN MODEL EX-GWF-CSUB-P04  PACKAGE EX-GWF-CSUB-P04 CONNECTED TO MODEL EX-GWF-CSUB-P04  PACKAGE WEL_0            ON UNIT   1020 AT TIME STEP     60, STRESS PERIOD      2
 UBDSV06 SAVING              RCH IN MODEL EX-GWF-CSUB-P04  PACKAGE EX-GWF-CSUB-P04 CONNECTED TO MODEL EX-GWF-CSUB-P04  PACKAGE RCH_0            ON UNIT   1020 AT TIME STEP     60, STRESS PERIOD      2
 UBDSV06 SAVING              CHD IN MODEL EX-GWF-CSUB-P04  PACKAGE EX-GWF-CSUB-P04 CONNECTED TO MODEL EX-GWF-CSUB-P04  PACKAGE CHD_0            ON UNIT   1020 AT TIME STEP     60, STRESS PERIOD      2

 HEAD WILL BE SAVED ON UNIT 1021 AT END OF TIME STEP   60, STRESS PERIOD    2


  VOLUME BUDGET FOR ENTIRE MODEL AT END OF TIME STEP   60, STRESS PERIOD   2
  ---------------------------------------------------------------------------------------------------

     CUMULATIVE VOLUME      L**3       RATES FOR THIS TIME STEP      L**3/T          PACKAGE NAME    
     ------------------                 ------------------------                     ----------------

           IN:                                      IN:
           ---                                      ---
              STO-SS =           0.0000                STO-SS =           0.0000     STORAGE                          
              STO-SY =  3001670204.9807                STO-SY =      129757.0051     STORAGE                          
      CSUB-CGELASTIC =     6981671.7376        CSUB-CGELASTIC =         291.6195     CSUB                             
        CSUB-ELASTIC =    21190098.5477          CSUB-ELASTIC =         809.7648     CSUB                             
      CSUB-INELASTIC =     6317392.7041        CSUB-INELASTIC =         787.0587     CSUB                             
      CSUB-WATERCOMP =    10815858.0140        CSUB-WATERCOMP =         453.6927     CSUB                             
                 WEL =           0.0000                   WEL =           0.0000     WEL_0                            
                 RCH =   867834000.0000                   RCH =       39600.0000     RCH_0                            
                 CHD =           0.0000                   CHD =           0.0000     CHD_0                            

            TOTAL IN =  3914809225.9841              TOTAL IN =      171699.1409

          OUT:                                     OUT:
          ----                                     ----
              STO-SS =           0.0000                STO-SS =           0.0000     STORAGE                          
              STO-SY =           0.0000                STO-SY =           0.0000     STORAGE                          
      CSUB-CGELASTIC =     6661342.8797        CSUB-CGELASTIC =         296.5068     CSUB                             
        CSUB-ELASTIC =           0.0000          CSUB-ELASTIC =           0.0000     CSUB                             
      CSUB-INELASTIC =           0.0000        CSUB-INELASTIC =           0.0000     CSUB                             
      CSUB-WATERCOMP =           0.0000        CSUB-WATERCOMP =           0.0000     CSUB                             
                 WEL =  3155760000.0000                   WEL =      144000.0000     WEL_0                            
                 RCH =           0.0000                   RCH =           0.0000     RCH_0                            
                 CHD =   752387883.0990                   CHD =       27402.6341     CHD_0                            

           TOTAL OUT =  3914809225.9787             TOTAL OUT =      171699.1409

            IN - OUT =       5.3873E-03              IN - OUT =       1.4012E-06

 PERCENT DISCREPANCY =           0.00     PERCENT DISCREPANCY =           0.00




         TIME SUMMARY AT END OF TIME STEP   60 IN STRESS PERIOD    2
                    SECONDS     MINUTES      HOURS       DAYS        YEARS
                    -----------------------------------------------------------
   TIME STEP LENGTH 3.15576E+07 5.25960E+05  8766.0      365.25      1.0000    
 STRESS PERIOD TIME 1.89346E+09 3.15576E+07 5.25960E+05  21915.      60.000    
         TOTAL TIME 1.89346E+09 3.15576E+07 5.25960E+05  21915.      60.000    


end timestep


start timestep kper="3" kstp="1" mode="normal"


 OUTPUT CONTROL FOR STRESS PERIOD 3 IS REPEATED USING SETTINGS FROM A PREVIOUS STRESS PERIOD.


 STRESS PERIOD 3 IS TRANSIENT


 REUSING CSUBS FROM LAST STRESS PERIOD

 REUSING RCHS FROM LAST STRESS PERIOD

 REUSING CHDS FROM LAST STRESS PERIOD
 UBDSV1 SAVING           STO-SS ON UNIT   1020 AT TIME STEP      1, STRESS PERIOD      3
 UBDSV1 SAVING           STO-SY ON UNIT   1020 AT TIME STEP      1, STRESS PERIOD      3
 UBDSV1 SAVING     FLOW-JA-FACE ON UNIT   1020 AT TIME STEP      1, STRESS PERIOD      3
 UBDSV06 SAVING       DATA-SPDIS IN MODEL EX-GWF-CSUB-P04  PACKAGE NPF             CONNECTED TO MODEL EX-GWF-CSUB-P04  PACKAGE NPF              ON UNIT   1020 AT TIME STEP      1, STRESS PERIOD      3
 UBDSV1 SAVING  CSUB-CGELASTIC  ON UNIT   1020 AT TIME STEP      1, STRESS PERIOD      3
 UBDSV06 SAVING    CSUB-ELASTIC  IN MODEL EX-GWF-CSUB-P04  PACKAGE EX-GWF-CSUB-P04 CONNECTED TO MODEL EX-GWF-CSUB-P04  PACKAGE CSUB             ON UNIT   1020 AT TIME STEP      1, STRESS PERIOD      3
 UBDSV06 SAVING  CSUB-INELASTIC  IN MODEL EX-GWF-CSUB-P04  PACKAGE EX-GWF-CSUB-P04 CONNECTED TO MODEL EX-GWF-CSUB-P04  PACKAGE CSUB             ON UNIT   1020 AT TIME STEP      1, STRESS PERIOD      3
 UBDSV1 SAVING  CSUB-WATERCOMP  ON UNIT   1020 AT TIME STEP      1, STRESS PERIOD      3
 UBDSV06 SAVING              WEL IN MODEL EX-GWF-CSUB-P04  PACKAGE EX-GWF-CSUB-P04 CONNECTED TO MODEL EX-GWF-CSUB-P04  PACKAGE WEL_0            ON UNIT   1020 AT TIME STEP      1, STRESS PERIOD      3
 UBDSV06 SAVING              RCH IN MODEL EX-GWF-CSUB-P04  PACKAGE EX-GWF-CSUB-P04 CONNECTED TO MODEL EX-GWF-CSUB-P04  PACKAGE RCH_0            ON UNIT   1020 AT TIME STEP      1, STRESS PERIOD      3
 UBDSV06 SAVING              CHD IN MODEL EX-GWF-CSUB-P04  PACKAGE EX-GWF-CSUB-P04 CONNECTED TO MODEL EX-GWF-CSUB-P04  PACKAGE CHD_0            ON UNIT   1020 AT TIME STEP      1, STRESS PERIOD      3

 HEAD WILL BE SAVED ON UNIT 1021 AT END OF TIME STEP    1, STRESS PERIOD    3


  VOLUME BUDGET FOR ENTIRE MODEL AT END OF TIME STEP    1, STRESS PERIOD   3
  ---------------------------------------------------------------------------------------------------

     CUMULATIVE VOLUME      L**3       RATES FOR THIS TIME STEP      L**3/T          PACKAGE NAME    
     ------------------                 ------------------------                     ----------------

           IN:                                      IN:
           ---                                      ---
              STO-SS =           0.0000                STO-SS =           0.0000     STORAGE                          
              STO-SY =  3032856113.0859                STO-SY =       85382.3631     STORAGE                          
      CSUB-CGELASTIC =     7127732.1461        CSUB-CGELASTIC =         399.8916     CSUB                             
        CSUB-ELASTIC =    21375517.8591          CSUB-ELASTIC =         507.6504     CSUB                             
      CSUB-INELASTIC =     6317392.7041        CSUB-INELASTIC =           0.0000     CSUB                             
      CSUB-WATERCOMP =    10910310.8644        CSUB-WATERCOMP =         258.5978     CSUB                             
                 WEL =           0.0000                   WEL =           0.0000     WEL_0                            
                 RCH =   882297900.0000                   RCH =       39600.0000     RCH_0                            
                 CHD =           0.0000                   CHD =           0.0000     CHD_0                            

            TOTAL IN =  3960884966.6595              TOTAL IN =      126148.5029

          OUT:                                     OUT:
          ----                                     ----
              STO-SS =           0.0000                STO-SS =           0.0000     STORAGE                          
              STO-SY =    35212983.0469                STO-SY =       96407.8934     STORAGE                          
      CSUB-CGELASTIC =     6931024.8692        CSUB-CGELASTIC =         738.3490     CSUB                             
        CSUB-ELASTIC =      416063.1960          CSUB-ELASTIC =        1139.1189     CSUB                             
      CSUB-INELASTIC =           0.0000        CSUB-INELASTIC =           0.0000     CSUB                             
      CSUB-WATERCOMP =      245195.5569        CSUB-WATERCOMP =         671.3088     CSUB                             
                 WEL =  3155760000.0000                   WEL =           0.0000     WEL_0                            
                 RCH =           0.0000                   RCH =           0.0000     RCH_0                            
                 CHD =   762319699.9851                   CHD =       27191.8327     CHD_0                            

           TOTAL OUT =  3960884966.6542             TOTAL OUT =      126148.5029

            IN - OUT =       5.3797E-03              IN - OUT =      -2.2177E-08

 PERCENT DISCREPANCY =           0.00     PERCENT DISCREPANCY =          -0.00




         TIME SUMMARY AT END OF TIME STEP    1 IN STRESS PERIOD    3
                    SECONDS     MINUTES      HOURS       DAYS        YEARS
                    -----------------------------------------------------------
   TIME STEP LENGTH 3.15576E+07 5.25960E+05  8766.0      365.25      1.0000    
 STRESS PERIOD TIME 3.15576E+07 5.25960E+05  8766.0      365.25      1.0000    
         TOTAL TIME 1.92501E+09 3.20836E+07 5.34726E+05  22280.      61.000    


end timestep


start timestep kper="3" kstp="2" mode="normal"

 UBDSV1 SAVING           STO-SS ON UNIT   1020 AT TIME STEP      2, STRESS PERIOD      3
 UBDSV1 SAVING           STO-SY ON UNIT   1020 AT TIME STEP      2, STRESS PERIOD      3
 UBDSV1 SAVING     FLOW-JA-FACE ON UNIT   1020 AT TIME STEP      2, STRESS PERIOD      3
 UBDSV06 SAVING       DATA-SPDIS IN MODEL EX-GWF-CSUB-P04  PACKAGE NPF             CONNECTED TO MODEL EX-GWF-CSUB-P04  PACKAGE NPF              ON UNIT   1020 AT TIME STEP      2, STRESS PERIOD      3
 UBDSV1 SAVING  CSUB-CGELASTIC  ON UNIT   1020 AT TIME STEP      2, STRESS PERIOD      3
 UBDSV06 SAVING    CSUB-ELASTIC  IN MODEL EX-GWF-CSUB-P04  PACKAGE EX-GWF-CSUB-P04 CONNECTED TO MODEL EX-GWF-CSUB-P04  PACKAGE CSUB             ON UNIT   1020 AT TIME STEP      2, STRESS PERIOD      3
 UBDSV06 SAVING  CSUB-INELASTIC  IN MODEL EX-GWF-CSUB-P04  PACKAGE EX-GWF-CSUB-P04 CONNECTED TO MODEL EX-GWF-CSUB-P04  PACKAGE CSUB             ON UNIT   1020 AT TIME STEP      2, STRESS PERIOD      3
 UBDSV1 SAVING  CSUB-WATERCOMP  ON UNIT   1020 AT TIME STEP      2, STRESS PERIOD      3
 UBDSV06 SAVING              WEL IN MODEL EX-GWF-CSUB-P04  PACKAGE EX-GWF-CSUB-P04 CONNECTED TO MODEL EX-GWF-CSUB-P04  PACKAGE WEL_0            ON UNIT   1020 AT TIME STEP      2, STRESS PERIOD      3
 UBDSV06 SAVING              RCH IN MODEL EX-GWF-CSUB-P04  PACKAGE EX-GWF-CSUB-P04 CONNECTED TO MODEL EX-GWF-CSUB-P04  PACKAGE RCH_0            ON UNIT   1020 AT TIME STEP      2, STRESS PERIOD      3
 UBDSV06 SAVING              CHD IN MODEL EX-GWF-CSUB-P04  PACKAGE EX-GWF-CSUB-P04 CONNECTED TO MODEL EX-GWF-CSUB-P04  PACKAGE CHD_0            ON UNIT   1020 AT TIME STEP      2, STRESS PERIOD      3

 HEAD WILL BE SAVED ON UNIT 1021 AT END OF TIME STEP    2, STRESS PERIOD    3


  VOLUME BUDGET FOR ENTIRE MODEL AT END OF TIME STEP    2, STRESS PERIOD   3
  ---------------------------------------------------------------------------------------------------

     CUMULATIVE VOLUME      L**3       RATES FOR THIS TIME STEP      L**3/T          PACKAGE NAME    
     ------------------                 ------------------------                     ----------------

           IN:                                      IN:
           ---                                      ---
              STO-SS =           0.0000                STO-SS =           0.0000     STORAGE                          
              STO-SY =  3060243041.9830                STO-SY =       74981.3248     STORAGE                          
      CSUB-CGELASTIC =     7259934.4840        CSUB-CGELASTIC =         361.9503     CSUB                             
        CSUB-ELASTIC =    21547027.3798          CSUB-ELASTIC =         469.5675     CSUB                             
      CSUB-INELASTIC =     6317392.7041        CSUB-INELASTIC =           0.0000     CSUB                             
      CSUB-WATERCOMP =    10998798.3613        CSUB-WATERCOMP =         242.2656     CSUB                             
                 WEL =           0.0000                   WEL =           0.0000     WEL_0                            
                 RCH =   896761800.0000                   RCH =       39600.0000     RCH_0                            
                 CHD =           0.0000                   CHD =           0.0000     CHD_0                            

            TOTAL IN =  4003127994.9123              TOTAL IN =      115655.1082

          OUT:                                     OUT:
          ----                                     ----
              STO-SS =           0.0000                STO-SS =           0.0000     STORAGE                          
              STO-SY =    67194641.3186                STO-SY =       87561.0083     STORAGE                          
      CSUB-CGELASTIC =     7058691.9032        CSUB-CGELASTIC =         349.5333     CSUB                             
        CSUB-ELASTIC =      591400.5681          CSUB-ELASTIC =         480.0476     CSUB                             
      CSUB-INELASTIC =           0.0000        CSUB-INELASTIC =           0.0000     CSUB                             
      CSUB-WATERCOMP =      348114.2392        CSUB-WATERCOMP =         281.7760     CSUB                             
                 WEL =  3155760000.0000                   WEL =           0.0000     WEL_0                            
                 RCH =           0.0000                   RCH =           0.0000     RCH_0                            
                 CHD =   772175146.8780                   CHD =       26982.7430     CHD_0                            

           TOTAL OUT =  4003127994.9070             TOTAL OUT =      115655.1082

            IN - OUT =       5.3315E-03              IN - OUT =      -1.3020E-07

 PERCENT DISCREPANCY =           0.00     PERCENT DISCREPANCY =          -0.00




         TIME SUMMARY AT END OF TIME STEP    2 IN STRESS PERIOD    3
                    SECONDS     MINUTES      HOURS       DAYS        YEARS
                    -----------------------------------------------------------
   TIME STEP LENGTH 3.15576E+07 5.25960E+05  8766.0      365.25      1.0000    
 STRESS PERIOD TIME 6.31152E+07 1.05192E+06  17532.      730.50      2.0000    
         TOTAL TIME 1.95657E+09 3.26095E+07 5.43492E+05  22646.      62.000    


end timestep


start timestep kper="3" kstp="3" mode="normal"

 UBDSV1 SAVING           STO-SS ON UNIT   1020 AT TIME STEP      3, STRESS PERIOD      3
 UBDSV1 SAVING           STO-SY ON UNIT   1020 AT TIME STEP      3, STRESS PERIOD      3
 UBDSV1 SAVING     FLOW-JA-FACE ON UNIT   1020 AT TIME STEP      3, STRESS PERIOD      3
 UBDSV06 SAVING       DATA-SPDIS IN MODEL EX-GWF-CSUB-P04  PACKAGE NPF             CONNECTED TO MODEL EX-GWF-CSUB-P04  PACKAGE NPF              ON UNIT   1020 AT TIME STEP      3, STRESS PERIOD      3
 UBDSV1 SAVING  CSUB-CGELASTIC  ON UNIT   1020 AT TIME STEP      3, STRESS PERIOD      3
 UBDSV06 SAVING    CSUB-ELASTIC  IN MODEL EX-GWF-CSUB-P04  PACKAGE EX-GWF-CSUB-P04 CONNECTED TO MODEL EX-GWF-CSUB-P04  PACKAGE CSUB             ON UNIT   1020 AT TIME STEP      3, STRESS PERIOD      3
 UBDSV06 SAVING  CSUB-INELASTIC  IN MODEL EX-GWF-CSUB-P04  PACKAGE EX-GWF-CSUB-P04 CONNECTED TO MODEL EX-GWF-CSUB-P04  PACKAGE CSUB             ON UNIT   1020 AT TIME STEP      3, STRESS PERIOD      3
 UBDSV1 SAVING  CSUB-WATERCOMP  ON UNIT   1020 AT TIME STEP      3, STRESS PERIOD      3
 UBDSV06 SAVING              WEL IN MODEL EX-GWF-CSUB-P04  PACKAGE EX-GWF-CSUB-P04 CONNECTED TO MODEL EX-GWF-CSUB-P04  PACKAGE WEL_0            ON UNIT   1020 AT TIME STEP      3, STRESS PERIOD      3
 UBDSV06 SAVING              RCH IN MODEL EX-GWF-CSUB-P04  PACKAGE EX-GWF-CSUB-P04 CONNECTED TO MODEL EX-GWF-CSUB-P04  PACKAGE RCH_0            ON UNIT   1020 AT TIME STEP      3, STRESS PERIOD      3
 UBDSV06 SAVING              CHD IN MODEL EX-GWF-CSUB-P04  PACKAGE EX-GWF-CSUB-P04 CONNECTED TO MODEL EX-GWF-CSUB-P04  PACKAGE CHD_0            ON UNIT   1020 AT TIME STEP      3, STRESS PERIOD      3

 HEAD WILL BE SAVED ON UNIT 1021 AT END OF TIME STEP    3, STRESS PERIOD    3


  VOLUME BUDGET FOR ENTIRE MODEL AT END OF TIME STEP    3, STRESS PERIOD   3
  ---------------------------------------------------------------------------------------------------

     CUMULATIVE VOLUME      L**3       RATES FOR THIS TIME STEP      L**3/T          PACKAGE NAME    
     ------------------                 ------------------------                     ----------------

           IN:                                      IN:
           ---                                      ---
              STO-SS =           0.0000                STO-SS =           0.0000     STORAGE                          
              STO-SY =  3084617184.6011                STO-SY =       66732.7656     STORAGE                          
      CSUB-CGELASTIC =     7378468.1441        CSUB-CGELASTIC =         324.5275     CSUB                             
        CSUB-ELASTIC =    21700792.5530          CSUB-ELASTIC =         420.9861     CSUB                             
      CSUB-INELASTIC =     6317392.7041        CSUB-INELASTIC =           0.0000     CSUB                             
      CSUB-WATERCOMP =    11078100.6914        CSUB-WATERCOMP =         217.1179     CSUB                             
                 WEL =           0.0000                   WEL =           0.0000     WEL_0                            
                 RCH =   911225700.0000                   RCH =       39600.0000     RCH_0                            
                 CHD =           0.0000                   CHD =           0.0000     CHD_0                            

            TOTAL IN =  4042317638.6937              TOTAL IN =      107295.3971

          OUT:                                     OUT:
          ----                                     ----
              STO-SS =           0.0000                STO-SS =           0.0000     STORAGE                          
              STO-SY =    96235756.0267                STO-SY =       79510.2388     STORAGE                          
      CSUB-CGELASTIC =     7172021.7919        CSUB-CGELASTIC =         310.2803     CSUB                             
        CSUB-ELASTIC =      751123.7789          CSUB-ELASTIC =         437.2983     CSUB                             
      CSUB-INELASTIC =           0.0000        CSUB-INELASTIC =           0.0000     CSUB                             
      CSUB-WATERCOMP =      440639.7247        CSUB-WATERCOMP =         253.3210     CSUB                             
                 WEL =  3155760000.0000                   WEL =           0.0000     WEL_0                            
                 RCH =           0.0000                   RCH =           0.0000     RCH_0                            
                 CHD =   781958097.3662                   CHD =       26784.2587     CHD_0                            

           TOTAL OUT =  4042317638.6884             TOTAL OUT =      107295.3971

            IN - OUT =       5.3449E-03              IN - OUT =       3.3746E-08

 PERCENT DISCREPANCY =           0.00     PERCENT DISCREPANCY =           0.00




         TIME SUMMARY AT END OF TIME STEP    3 IN STRESS PERIOD    3
                    SECONDS     MINUTES      HOURS       DAYS        YEARS
                    -----------------------------------------------------------
   TIME STEP LENGTH 3.15576E+07 5.25960E+05  8766.0      365.25      1.0000    
 STRESS PERIOD TIME 9.46728E+07 1.57788E+06  26298.      1095.8      3.0000    
         TOTAL TIME 1.98813E+09 3.31355E+07 5.52258E+05  23011.      63.000    


end timestep


start timestep kper="3" kstp="4" mode="normal"

 UBDSV1 SAVING           STO-SS ON UNIT   1020 AT TIME STEP      4, STRESS PERIOD      3
 UBDSV1 SAVING           STO-SY ON UNIT   1020 AT TIME STEP      4, STRESS PERIOD      3
 UBDSV1 SAVING     FLOW-JA-FACE ON UNIT   1020 AT TIME STEP      4, STRESS PERIOD      3
 UBDSV06 SAVING       DATA-SPDIS IN MODEL EX-GWF-CSUB-P04  PACKAGE NPF             CONNECTED TO MODEL EX-GWF-CSUB-P04  PACKAGE NPF              ON UNIT   1020 AT TIME STEP      4, STRESS PERIOD      3
 UBDSV1 SAVING  CSUB-CGELASTIC  ON UNIT   1020 AT TIME STEP      4, STRESS PERIOD      3
 UBDSV06 SAVING    CSUB-ELASTIC  IN MODEL EX-GWF-CSUB-P04  PACKAGE EX-GWF-CSUB-P04 CONNECTED TO MODEL EX-GWF-CSUB-P04  PACKAGE CSUB             ON UNIT   1020 AT TIME STEP      4, STRESS PERIOD      3
 UBDSV06 SAVING  CSUB-INELASTIC  IN MODEL EX-GWF-CSUB-P04  PACKAGE EX-GWF-CSUB-P04 CONNECTED TO MODEL EX-GWF-CSUB-P04  PACKAGE CSUB             ON UNIT   1020 AT TIME STEP      4, STRESS PERIOD      3
 UBDSV1 SAVING  CSUB-WATERCOMP  ON UNIT   1020 AT TIME STEP      4, STRESS PERIOD      3
 UBDSV06 SAVING              WEL IN MODEL EX-GWF-CSUB-P04  PACKAGE EX-GWF-CSUB-P04 CONNECTED TO MODEL EX-GWF-CSUB-P04  PACKAGE WEL_0            ON UNIT   1020 AT TIME STEP      4, STRESS PERIOD      3
 UBDSV06 SAVING              RCH IN MODEL EX-GWF-CSUB-P04  PACKAGE EX-GWF-CSUB-P04 CONNECTED TO MODEL EX-GWF-CSUB-P04  PACKAGE RCH_0            ON UNIT   1020 AT TIME STEP      4, STRESS PERIOD      3
 UBDSV06 SAVING              CHD IN MODEL EX-GWF-CSUB-P04  PACKAGE EX-GWF-CSUB-P04 CONNECTED TO MODEL EX-GWF-CSUB-P04  PACKAGE CHD_0            ON UNIT   1020 AT TIME STEP      4, STRESS PERIOD      3

 HEAD WILL BE SAVED ON UNIT 1021 AT END OF TIME STEP    4, STRESS PERIOD    3


  VOLUME BUDGET FOR ENTIRE MODEL AT END OF TIME STEP    4, STRESS PERIOD   3
  ---------------------------------------------------------------------------------------------------

     CUMULATIVE VOLUME      L**3       RATES FOR THIS TIME STEP      L**3/T          PACKAGE NAME    
     ------------------                 ------------------------                     ----------------

           IN:                                      IN:
           ---                                      ---
              STO-SS =           0.0000                STO-SS =           0.0000     STORAGE                          
              STO-SY =  3106372979.7812                STO-SY =       59564.1210     STORAGE                          
      CSUB-CGELASTIC =     7485232.9388        CSUB-CGELASTIC =         292.3061     CSUB                             
        CSUB-ELASTIC =    21838504.8993          CSUB-ELASTIC =         377.0359     CSUB                             
      CSUB-INELASTIC =     6317392.7041        CSUB-INELASTIC =           0.0000     CSUB                             
      CSUB-WATERCOMP =    11149071.0869        CSUB-WATERCOMP =         194.3064     CSUB                             
                 WEL =           0.0000                   WEL =           0.0000     WEL_0                            
                 RCH =   925689600.0000                   RCH =       39600.0000     RCH_0                            
                 CHD =           0.0000                   CHD =           0.0000     CHD_0                            

            TOTAL IN =  4078852781.4103              TOTAL IN =      100027.7692

          OUT:                                     OUT:
          ----                                     ----
              STO-SS =           0.0000                STO-SS =           0.0000     STORAGE                          
              STO-SY =   122720603.6189                STO-SY =       72511.5608     STORAGE                          
      CSUB-CGELASTIC =     7274514.6431        CSUB-CGELASTIC =         280.6101     CSUB                             
        CSUB-ELASTIC =      899093.6676          CSUB-ELASTIC =         405.1195     CSUB                             
      CSUB-INELASTIC =           0.0000        CSUB-INELASTIC =           0.0000     CSUB                             
      CSUB-WATERCOMP =      525642.1101        CSUB-WATERCOMP =         232.7238     CSUB                             
                 WEL =  3155760000.0000                   WEL =           0.0000     WEL_0                            
                 RCH =           0.0000                   RCH =           0.0000     RCH_0                            
                 CHD =   791672927.3652                   CHD =       26597.7550     CHD_0                            

           TOTAL OUT =  4078852781.4050             TOTAL OUT =      100027.7692

            IN - OUT =       5.3682E-03              IN - OUT =       6.6095E-08

 PERCENT DISCREPANCY =           0.00     PERCENT DISCREPANCY =           0.00




         TIME SUMMARY AT END OF TIME STEP    4 IN STRESS PERIOD    3
                    SECONDS     MINUTES      HOURS       DAYS        YEARS
                    -----------------------------------------------------------
   TIME STEP LENGTH 3.15576E+07 5.25960E+05  8766.0      365.25      1.0000    
 STRESS PERIOD TIME 1.26230E+08 2.10384E+06  35064.      1461.0      4.0000    
         TOTAL TIME 2.01969E+09 3.36614E+07 5.61024E+05  23376.      64.000    


end timestep


start timestep kper="3" kstp="5" mode="normal"

 UBDSV1 SAVING           STO-SS ON UNIT   1020 AT TIME STEP      5, STRESS PERIOD      3
 UBDSV1 SAVING           STO-SY ON UNIT   1020 AT TIME STEP      5, STRESS PERIOD      3
 UBDSV1 SAVING     FLOW-JA-FACE ON UNIT   1020 AT TIME STEP      5, STRESS PERIOD      3
 UBDSV06 SAVING       DATA-SPDIS IN MODEL EX-GWF-CSUB-P04  PACKAGE NPF             CONNECTED TO MODEL EX-GWF-CSUB-P04  PACKAGE NPF              ON UNIT   1020 AT TIME STEP      5, STRESS PERIOD      3
 UBDSV1 SAVING  CSUB-CGELASTIC  ON UNIT   1020 AT TIME STEP      5, STRESS PERIOD      3
 UBDSV06 SAVING    CSUB-ELASTIC  IN MODEL EX-GWF-CSUB-P04  PACKAGE EX-GWF-CSUB-P04 CONNECTED TO MODEL EX-GWF-CSUB-P04  PACKAGE CSUB             ON UNIT   1020 AT TIME STEP      5, STRESS PERIOD      3
 UBDSV06 SAVING  CSUB-INELASTIC  IN MODEL EX-GWF-CSUB-P04  PACKAGE EX-GWF-CSUB-P04 CONNECTED TO MODEL EX-GWF-CSUB-P04  PACKAGE CSUB             ON UNIT   1020 AT TIME STEP      5, STRESS PERIOD      3
 UBDSV1 SAVING  CSUB-WATERCOMP  ON UNIT   1020 AT TIME STEP      5, STRESS PERIOD      3
 UBDSV06 SAVING              WEL IN MODEL EX-GWF-CSUB-P04  PACKAGE EX-GWF-CSUB-P04 CONNECTED TO MODEL EX-GWF-CSUB-P04  PACKAGE WEL_0            ON UNIT   1020 AT TIME STEP      5, STRESS PERIOD      3
 UBDSV06 SAVING              RCH IN MODEL EX-GWF-CSUB-P04  PACKAGE EX-GWF-CSUB-P04 CONNECTED TO MODEL EX-GWF-CSUB-P04  PACKAGE RCH_0            ON UNIT   1020 AT TIME STEP      5, STRESS PERIOD      3
 UBDSV06 SAVING              CHD IN MODEL EX-GWF-CSUB-P04  PACKAGE EX-GWF-CSUB-P04 CONNECTED TO MODEL EX-GWF-CSUB-P04  PACKAGE CHD_0            ON UNIT   1020 AT TIME STEP      5, STRESS PERIOD      3

 HEAD WILL BE SAVED ON UNIT 1021 AT END OF TIME STEP    5, STRESS PERIOD    3


  VOLUME BUDGET FOR ENTIRE MODEL AT END OF TIME STEP    5, STRESS PERIOD   3
  ---------------------------------------------------------------------------------------------------

     CUMULATIVE VOLUME      L**3       RATES FOR THIS TIME STEP      L**3/T          PACKAGE NAME    
     ------------------                 ------------------------                     ----------------

           IN:                                      IN:
           ---                                      ---
              STO-SS =           0.0000                STO-SS =           0.0000     STORAGE                          
              STO-SY =  3125810038.3045                STO-SY =       53215.7660     STORAGE                          
      CSUB-CGELASTIC =     7581727.1107        CSUB-CGELASTIC =         264.1866     CSUB                             
        CSUB-ELASTIC =    21961922.3619          CSUB-ELASTIC =         337.8986     CSUB                             
      CSUB-INELASTIC =     6317392.7041        CSUB-INELASTIC =           0.0000     CSUB                             
      CSUB-WATERCOMP =    11212610.4392        CSUB-WATERCOMP =         173.9613     CSUB                             
                 WEL =           0.0000                   WEL =           0.0000     WEL_0                            
                 RCH =   940153500.0000                   RCH =       39600.0000     RCH_0                            
                 CHD =           0.0000                   CHD =           0.0000     CHD_0                            

            TOTAL IN =  4113037190.9204              TOTAL IN =       93591.8125

          OUT:                                     OUT:
          ----                                     ----
              STO-SS =           0.0000                STO-SS =           0.0000     STORAGE                          
              STO-SY =   146945607.9151                STO-SY =       66324.4471     STORAGE                          
      CSUB-CGELASTIC =     7367398.9695        CSUB-CGELASTIC =         254.3034     CSUB                             
        CSUB-ELASTIC =     1036113.4270          CSUB-ELASTIC =         375.1397     CSUB                             
      CSUB-INELASTIC =           0.0000        CSUB-INELASTIC =           0.0000     CSUB                             
      CSUB-WATERCOMP =      603852.1554        CSUB-WATERCOMP =         214.1274     CSUB                             
                 WEL =  3155760000.0000                   WEL =           0.0000     WEL_0                            
                 RCH =           0.0000                   RCH =           0.0000     RCH_0                            
                 CHD =   801324218.4480                   CHD =       26423.7949     CHD_0                            

           TOTAL OUT =  4113037190.9150             TOTAL OUT =       93591.8125

            IN - OUT =       5.3549E-03              IN - OUT =      -3.6729E-08

 PERCENT DISCREPANCY =           0.00     PERCENT DISCREPANCY =          -0.00




         TIME SUMMARY AT END OF TIME STEP    5 IN STRESS PERIOD    3
                    SECONDS     MINUTES      HOURS       DAYS        YEARS
                    -----------------------------------------------------------
   TIME STEP LENGTH 3.15576E+07 5.25960E+05  8766.0      365.25      1.0000    
 STRESS PERIOD TIME 1.57788E+08 2.62980E+06  43830.      1826.2      5.0000    
         TOTAL TIME 2.05124E+09 3.41874E+07 5.69790E+05  23741.      65.000    


end timestep


start timestep kper="3" kstp="6" mode="normal"

 UBDSV1 SAVING           STO-SS ON UNIT   1020 AT TIME STEP      6, STRESS PERIOD      3
 UBDSV1 SAVING           STO-SY ON UNIT   1020 AT TIME STEP      6, STRESS PERIOD      3
 UBDSV1 SAVING     FLOW-JA-FACE ON UNIT   1020 AT TIME STEP      6, STRESS PERIOD      3
 UBDSV06 SAVING       DATA-SPDIS IN MODEL EX-GWF-CSUB-P04  PACKAGE NPF             CONNECTED TO MODEL EX-GWF-CSUB-P04  PACKAGE NPF              ON UNIT   1020 AT TIME STEP      6, STRESS PERIOD      3
 UBDSV1 SAVING  CSUB-CGELASTIC  ON UNIT   1020 AT TIME STEP      6, STRESS PERIOD      3
 UBDSV06 SAVING    CSUB-ELASTIC  IN MODEL EX-GWF-CSUB-P04  PACKAGE EX-GWF-CSUB-P04 CONNECTED TO MODEL EX-GWF-CSUB-P04  PACKAGE CSUB             ON UNIT   1020 AT TIME STEP      6, STRESS PERIOD      3
 UBDSV06 SAVING  CSUB-INELASTIC  IN MODEL EX-GWF-CSUB-P04  PACKAGE EX-GWF-CSUB-P04 CONNECTED TO MODEL EX-GWF-CSUB-P04  PACKAGE CSUB             ON UNIT   1020 AT TIME STEP      6, STRESS PERIOD      3
 UBDSV1 SAVING  CSUB-WATERCOMP  ON UNIT   1020 AT TIME STEP      6, STRESS PERIOD      3
 UBDSV06 SAVING              WEL IN MODEL EX-GWF-CSUB-P04  PACKAGE EX-GWF-CSUB-P04 CONNECTED TO MODEL EX-GWF-CSUB-P04  PACKAGE WEL_0            ON UNIT   1020 AT TIME STEP      6, STRESS PERIOD      3
 UBDSV06 SAVING              RCH IN MODEL EX-GWF-CSUB-P04  PACKAGE EX-GWF-CSUB-P04 CONNECTED TO MODEL EX-GWF-CSUB-P04  PACKAGE RCH_0            ON UNIT   1020 AT TIME STEP      6, STRESS PERIOD      3
 UBDSV06 SAVING              CHD IN MODEL EX-GWF-CSUB-P04  PACKAGE EX-GWF-CSUB-P04 CONNECTED TO MODEL EX-GWF-CSUB-P04  PACKAGE CHD_0            ON UNIT   1020 AT TIME STEP      6, STRESS PERIOD      3

 HEAD WILL BE SAVED ON UNIT 1021 AT END OF TIME STEP    6, STRESS PERIOD    3


  VOLUME BUDGET FOR ENTIRE MODEL AT END OF TIME STEP    6, STRESS PERIOD   3
  ---------------------------------------------------------------------------------------------------

     CUMULATIVE VOLUME      L**3       RATES FOR THIS TIME STEP      L**3/T          PACKAGE NAME    
     ------------------                 ------------------------                     ----------------

           IN:                                      IN:
           ---                                      ---
              STO-SS =           0.0000                STO-SS =           0.0000     STORAGE                          
              STO-SY =  3143268538.0603                STO-SY =       47798.7673     STORAGE                          
      CSUB-CGELASTIC =     7669468.4710        CSUB-CGELASTIC =         240.2228     CSUB                             
        CSUB-ELASTIC =    22072908.1616          CSUB-ELASTIC =         303.8626     CSUB                             
      CSUB-INELASTIC =     6317392.7041        CSUB-INELASTIC =           0.0000     CSUB                             
      CSUB-WATERCOMP =    11269651.7374        CSUB-WATERCOMP =         156.1706     CSUB                             
                 WEL =           0.0000                   WEL =           0.0000     WEL_0                            
                 RCH =   954617400.0000                   RCH =       39600.0000     RCH_0                            
                 CHD =           0.0000                   CHD =           0.0000     CHD_0                            

            TOTAL IN =  4145215359.1344              TOTAL IN =       88099.0232

          OUT:                                     OUT:
          ----                                     ----
              STO-SS =           0.0000                STO-SS =           0.0000     STORAGE                          
              STO-SY =   169247198.4187                STO-SY =       61058.4271     STORAGE                          
      CSUB-CGELASTIC =     7452023.5766        CSUB-CGELASTIC =         231.6895     CSUB                             
        CSUB-ELASTIC =     1163407.2278          CSUB-ELASTIC =         348.5114     CSUB                             
      CSUB-INELASTIC =           0.0000        CSUB-INELASTIC =           0.0000     CSUB                             
      CSUB-WATERCOMP =      676076.7547        CSUB-WATERCOMP =         197.7402     CSUB                             
                 WEL =  3155760000.0000                   WEL =           0.0000     WEL_0                            
                 RCH =           0.0000                   RCH =           0.0000     RCH_0                            
                 CHD =   810916653.1514                   CHD =       26262.6549     CHD_0                            

           TOTAL OUT =  4145215359.1290             TOTAL OUT =       88099.0232

            IN - OUT =       5.3635E-03              IN - OUT =       2.3327E-08

 PERCENT DISCREPANCY =           0.00     PERCENT DISCREPANCY =           0.00




         TIME SUMMARY AT END OF TIME STEP    6 IN STRESS PERIOD    3
                    SECONDS     MINUTES      HOURS       DAYS        YEARS
                    -----------------------------------------------------------
   TIME STEP LENGTH 3.15576E+07 5.25960E+05  8766.0      365.25      1.0000    
 STRESS PERIOD TIME 1.89346E+08 3.15576E+06  52596.      2191.5      6.0000    
         TOTAL TIME 2.08280E+09 3.47134E+07 5.78556E+05  24106.      66.000    


end timestep


start timestep kper="3" kstp="7" mode="normal"

 UBDSV1 SAVING           STO-SS ON UNIT   1020 AT TIME STEP      7, STRESS PERIOD      3
 UBDSV1 SAVING           STO-SY ON UNIT   1020 AT TIME STEP      7, STRESS PERIOD      3
 UBDSV1 SAVING     FLOW-JA-FACE ON UNIT   1020 AT TIME STEP      7, STRESS PERIOD      3
 UBDSV06 SAVING       DATA-SPDIS IN MODEL EX-GWF-CSUB-P04  PACKAGE NPF             CONNECTED TO MODEL EX-GWF-CSUB-P04  PACKAGE NPF              ON UNIT   1020 AT TIME STEP      7, STRESS PERIOD      3
 UBDSV1 SAVING  CSUB-CGELASTIC  ON UNIT   1020 AT TIME STEP      7, STRESS PERIOD      3
 UBDSV06 SAVING    CSUB-ELASTIC  IN MODEL EX-GWF-CSUB-P04  PACKAGE EX-GWF-CSUB-P04 CONNECTED TO MODEL EX-GWF-CSUB-P04  PACKAGE CSUB             ON UNIT   1020 AT TIME STEP      7, STRESS PERIOD      3
 UBDSV06 SAVING  CSUB-INELASTIC  IN MODEL EX-GWF-CSUB-P04  PACKAGE EX-GWF-CSUB-P04 CONNECTED TO MODEL EX-GWF-CSUB-P04  PACKAGE CSUB             ON UNIT   1020 AT TIME STEP      7, STRESS PERIOD      3
 UBDSV1 SAVING  CSUB-WATERCOMP  ON UNIT   1020 AT TIME STEP      7, STRESS PERIOD      3
 UBDSV06 SAVING              WEL IN MODEL EX-GWF-CSUB-P04  PACKAGE EX-GWF-CSUB-P04 CONNECTED TO MODEL EX-GWF-CSUB-P04  PACKAGE WEL_0            ON UNIT   1020 AT TIME STEP      7, STRESS PERIOD      3
 UBDSV06 SAVING              RCH IN MODEL EX-GWF-CSUB-P04  PACKAGE EX-GWF-CSUB-P04 CONNECTED TO MODEL EX-GWF-CSUB-P04  PACKAGE RCH_0            ON UNIT   1020 AT TIME STEP      7, STRESS PERIOD      3
 UBDSV06 SAVING              CHD IN MODEL EX-GWF-CSUB-P04  PACKAGE EX-GWF-CSUB-P04 CONNECTED TO MODEL EX-GWF-CSUB-P04  PACKAGE CHD_0            ON UNIT   1020 AT TIME STEP      7, STRESS PERIOD      3

 HEAD WILL BE SAVED ON UNIT 1021 AT END OF TIME STEP    7, STRESS PERIOD    3


  VOLUME BUDGET FOR ENTIRE MODEL AT END OF TIME STEP    7, STRESS PERIOD   3
  ---------------------------------------------------------------------------------------------------

     CUMULATIVE VOLUME      L**3       RATES FOR THIS TIME STEP      L**3/T          PACKAGE NAME    
     ------------------                 ------------------------                     ----------------

           IN:                                      IN:
           ---                                      ---
              STO-SS =           0.0000                STO-SS =           0.0000     STORAGE                          
              STO-SY =  3158913157.5816                STO-SY =       42832.6339     STORAGE                          
      CSUB-CGELASTIC =     7749288.4237        CSUB-CGELASTIC =         218.5351     CSUB                             
        CSUB-ELASTIC =    22172579.2611          CSUB-ELASTIC =         272.8846     CSUB                             
      CSUB-INELASTIC =     6317392.7041        CSUB-INELASTIC =           0.0000     CSUB                             
      CSUB-WATERCOMP =    11320781.3601        CSUB-WATERCOMP =         139.9853     CSUB                             
                 WEL =           0.0000                   WEL =           0.0000     WEL_0                            
                 RCH =   969081300.0000                   RCH =       39600.0000     RCH_0                            
                 CHD =           0.0000                   CHD =           0.0000     CHD_0                            

            TOTAL IN =  4175554499.3305              TOTAL IN =       83064.0389

          OUT:                                     OUT:
          ----                                     ----
              STO-SS =           0.0000                STO-SS =           0.0000     STORAGE                          
              STO-SY =   189786011.9032                STO-SY =       56232.2067     STORAGE                          
      CSUB-CGELASTIC =     7529111.6490        CSUB-CGELASTIC =         211.0556     CSUB                             
        CSUB-ELASTIC =     1281630.8163          CSUB-ELASTIC =         323.6785     CSUB                             
      CSUB-INELASTIC =           0.0000        CSUB-INELASTIC =           0.0000     CSUB                             
      CSUB-WATERCOMP =      742815.0705        CSUB-WATERCOMP =         182.7196     CSUB                             
                 WEL =  3155760000.0000                   WEL =           0.0000     WEL_0                            
                 RCH =           0.0000                   RCH =           0.0000     RCH_0                            
                 CHD =   820454929.8862                   CHD =       26114.3785     CHD_0                            

           TOTAL OUT =  4175554499.3252             TOTAL OUT =       83064.0389

            IN - OUT =       5.3153E-03              IN - OUT =      -1.3133E-07

 PERCENT DISCREPANCY =           0.00     PERCENT DISCREPANCY =          -0.00




         TIME SUMMARY AT END OF TIME STEP    7 IN STRESS PERIOD    3
                    SECONDS     MINUTES      HOURS       DAYS        YEARS
                    -----------------------------------------------------------
   TIME STEP LENGTH 3.15576E+07 5.25960E+05  8766.0      365.25      1.0000    
 STRESS PERIOD TIME 2.20903E+08 3.68172E+06  61362.      2556.8      7.0000    
         TOTAL TIME 2.11436E+09 3.52393E+07 5.87322E+05  24472.      67.000    


end timestep


start timestep kper="3" kstp="8" mode="normal"

 UBDSV1 SAVING           STO-SS ON UNIT   1020 AT TIME STEP      8, STRESS PERIOD      3
 UBDSV1 SAVING           STO-SY ON UNIT   1020 AT TIME STEP      8, STRESS PERIOD      3
 UBDSV1 SAVING     FLOW-JA-FACE ON UNIT   1020 AT TIME STEP      8, STRESS PERIOD      3
 UBDSV06 SAVING       DATA-SPDIS IN MODEL EX-GWF-CSUB-P04  PACKAGE NPF             CONNECTED TO MODEL EX-GWF-CSUB-P04  PACKAGE NPF              ON UNIT   1020 AT TIME STEP      8, STRESS PERIOD      3
 UBDSV1 SAVING  CSUB-CGELASTIC  ON UNIT   1020 AT TIME STEP      8, STRESS PERIOD      3
 UBDSV06 SAVING    CSUB-ELASTIC  IN MODEL EX-GWF-CSUB-P04  PACKAGE EX-GWF-CSUB-P04 CONNECTED TO MODEL EX-GWF-CSUB-P04  PACKAGE CSUB             ON UNIT   1020 AT TIME STEP      8, STRESS PERIOD      3
 UBDSV06 SAVING  CSUB-INELASTIC  IN MODEL EX-GWF-CSUB-P04  PACKAGE EX-GWF-CSUB-P04 CONNECTED TO MODEL EX-GWF-CSUB-P04  PACKAGE CSUB             ON UNIT   1020 AT TIME STEP      8, STRESS PERIOD      3
 UBDSV1 SAVING  CSUB-WATERCOMP  ON UNIT   1020 AT TIME STEP      8, STRESS PERIOD      3
 UBDSV06 SAVING              WEL IN MODEL EX-GWF-CSUB-P04  PACKAGE EX-GWF-CSUB-P04 CONNECTED TO MODEL EX-GWF-CSUB-P04  PACKAGE WEL_0            ON UNIT   1020 AT TIME STEP      8, STRESS PERIOD      3
 UBDSV06 SAVING              RCH IN MODEL EX-GWF-CSUB-P04  PACKAGE EX-GWF-CSUB-P04 CONNECTED TO MODEL EX-GWF-CSUB-P04  PACKAGE RCH_0            ON UNIT   1020 AT TIME STEP      8, STRESS PERIOD      3
 UBDSV06 SAVING              CHD IN MODEL EX-GWF-CSUB-P04  PACKAGE EX-GWF-CSUB-P04 CONNECTED TO MODEL EX-GWF-CSUB-P04  PACKAGE CHD_0            ON UNIT   1020 AT TIME STEP      8, STRESS PERIOD      3

 HEAD WILL BE SAVED ON UNIT 1021 AT END OF TIME STEP    8, STRESS PERIOD    3


  VOLUME BUDGET FOR ENTIRE MODEL AT END OF TIME STEP    8, STRESS PERIOD   3
  ---------------------------------------------------------------------------------------------------

     CUMULATIVE VOLUME      L**3       RATES FOR THIS TIME STEP      L**3/T          PACKAGE NAME    
     ------------------                 ------------------------                     ----------------

           IN:                                      IN:
           ---                                      ---
              STO-SS =           0.0000                STO-SS =           0.0000     STORAGE                          
              STO-SY =  3172925129.7490                STO-SY =       38362.6890     STORAGE                          
      CSUB-CGELASTIC =     7822032.4945        CSUB-CGELASTIC =         199.1624     CSUB                             
        CSUB-ELASTIC =    22262109.0459          CSUB-ELASTIC =         245.1192     CSUB                             
      CSUB-INELASTIC =     6317392.7041        CSUB-INELASTIC =           0.0000     CSUB                             
      CSUB-WATERCOMP =    11366617.5976        CSUB-WATERCOMP =         125.4928     CSUB                             
                 WEL =           0.0000                   WEL =           0.0000     WEL_0                            
                 RCH =   983545200.0000                   RCH =       39600.0000     RCH_0                            
                 CHD =           0.0000                   CHD =           0.0000     CHD_0                            

            TOTAL IN =  4204238481.5912              TOTAL IN =       78532.4634

          OUT:                                     OUT:
          ----                                     ----
              STO-SS =           0.0000                STO-SS =           0.0000     STORAGE                          
              STO-SY =   208739136.8295                STO-SY =       51890.8280     STORAGE                          
      CSUB-CGELASTIC =     7599432.6927        CSUB-CGELASTIC =         192.5285     CSUB                             
        CSUB-ELASTIC =     1391599.9908          CSUB-ELASTIC =         301.0792     CSUB                             
      CSUB-INELASTIC =           0.0000        CSUB-INELASTIC =           0.0000     CSUB                             
      CSUB-WATERCOMP =      804619.6748        CSUB-WATERCOMP =         169.2118     CSUB                             
                 WEL =  3155760000.0000                   WEL =           0.0000     WEL_0                            
                 RCH =           0.0000                   RCH =           0.0000     RCH_0                            
                 CHD =   829943692.3981                   CHD =       25978.8159     CHD_0                            

           TOTAL OUT =  4204238481.5858             TOTAL OUT =       78532.4634

            IN - OUT =       5.3535E-03              IN - OUT =       1.0314E-07

 PERCENT DISCREPANCY =           0.00     PERCENT DISCREPANCY =           0.00




         TIME SUMMARY AT END OF TIME STEP    8 IN STRESS PERIOD    3
                    SECONDS     MINUTES      HOURS       DAYS        YEARS
                    -----------------------------------------------------------
   TIME STEP LENGTH 3.15576E+07 5.25960E+05  8766.0      365.25      1.0000    
 STRESS PERIOD TIME 2.52461E+08 4.20768E+06  70128.      2922.0      8.0000    
         TOTAL TIME 2.14592E+09 3.57653E+07 5.96088E+05  24837.      68.000    


end timestep


start timestep kper="3" kstp="9" mode="normal"

 UBDSV1 SAVING           STO-SS ON UNIT   1020 AT TIME STEP      9, STRESS PERIOD      3
 UBDSV1 SAVING           STO-SY ON UNIT   1020 AT TIME STEP      9, STRESS PERIOD      3
 UBDSV1 SAVING     FLOW-JA-FACE ON UNIT   1020 AT TIME STEP      9, STRESS PERIOD      3
 UBDSV06 SAVING       DATA-SPDIS IN MODEL EX-GWF-CSUB-P04  PACKAGE NPF             CONNECTED TO MODEL EX-GWF-CSUB-P04  PACKAGE NPF              ON UNIT   1020 AT TIME STEP      9, STRESS PERIOD      3
 UBDSV1 SAVING  CSUB-CGELASTIC  ON UNIT   1020 AT TIME STEP      9, STRESS PERIOD      3
 UBDSV06 SAVING    CSUB-ELASTIC  IN MODEL EX-GWF-CSUB-P04  PACKAGE EX-GWF-CSUB-P04 CONNECTED TO MODEL EX-GWF-CSUB-P04  PACKAGE CSUB             ON UNIT   1020 AT TIME STEP      9, STRESS PERIOD      3
 UBDSV06 SAVING  CSUB-INELASTIC  IN MODEL EX-GWF-CSUB-P04  PACKAGE EX-GWF-CSUB-P04 CONNECTED TO MODEL EX-GWF-CSUB-P04  PACKAGE CSUB             ON UNIT   1020 AT TIME STEP      9, STRESS PERIOD      3
 UBDSV1 SAVING  CSUB-WATERCOMP  ON UNIT   1020 AT TIME STEP      9, STRESS PERIOD      3
 UBDSV06 SAVING              WEL IN MODEL EX-GWF-CSUB-P04  PACKAGE EX-GWF-CSUB-P04 CONNECTED TO MODEL EX-GWF-CSUB-P04  PACKAGE WEL_0            ON UNIT   1020 AT TIME STEP      9, STRESS PERIOD      3
 UBDSV06 SAVING              RCH IN MODEL EX-GWF-CSUB-P04  PACKAGE EX-GWF-CSUB-P04 CONNECTED TO MODEL EX-GWF-CSUB-P04  PACKAGE RCH_0            ON UNIT   1020 AT TIME STEP      9, STRESS PERIOD      3
 UBDSV06 SAVING              CHD IN MODEL EX-GWF-CSUB-P04  PACKAGE EX-GWF-CSUB-P04 CONNECTED TO MODEL EX-GWF-CSUB-P04  PACKAGE CHD_0            ON UNIT   1020 AT TIME STEP      9, STRESS PERIOD      3

 HEAD WILL BE SAVED ON UNIT 1021 AT END OF TIME STEP    9, STRESS PERIOD    3


  VOLUME BUDGET FOR ENTIRE MODEL AT END OF TIME STEP    9, STRESS PERIOD   3
  ---------------------------------------------------------------------------------------------------

     CUMULATIVE VOLUME      L**3       RATES FOR THIS TIME STEP      L**3/T          PACKAGE NAME    
     ------------------                 ------------------------                     ----------------

           IN:                                      IN:
           ---                                      ---
              STO-SS =           0.0000                STO-SS =           0.0000     STORAGE                          
              STO-SY =  3185462693.0452                STO-SY =       34325.9775     STORAGE                          
      CSUB-CGELASTIC =     7888414.2783        CSUB-CGELASTIC =         181.7434     CSUB                             
        CSUB-ELASTIC =    22342508.4570          CSUB-ELASTIC =         220.1216     CSUB                             
      CSUB-INELASTIC =     6317392.7041        CSUB-INELASTIC =           0.0000     CSUB                             
      CSUB-WATERCOMP =    11407720.6310        CSUB-WATERCOMP =         112.5340     CSUB                             
                 WEL =           0.0000                   WEL =           0.0000     WEL_0                            
                 RCH =   998009100.0000                   RCH =       39600.0000     RCH_0                            
                 CHD =           0.0000                   CHD =           0.0000     CHD_0                            

            TOTAL IN =  4231427829.1157              TOTAL IN =       74440.3765

          OUT:                                     OUT:
          ----                                     ----
              STO-SS =           0.0000                STO-SS =           0.0000     STORAGE                          
              STO-SY =   226260674.9274                STO-SY =       47971.3569     STORAGE                          
      CSUB-CGELASTIC =     7663643.7580        CSUB-CGELASTIC =         175.8003     CSUB                             
        CSUB-ELASTIC =     1494038.2786          CSUB-ELASTIC =         280.4607     CSUB                             
      CSUB-INELASTIC =           0.0000        CSUB-INELASTIC =           0.0000     CSUB                             
      CSUB-WATERCOMP =      861998.4501        CSUB-WATERCOMP =         157.0945     CSUB                             
                 WEL =  3155760000.0000                   WEL =           0.0000     WEL_0                            
                 RCH =           0.0000                   RCH =           0.0000     RCH_0                            
                 CHD =   839387473.6963                   CHD =       25855.6641     CHD_0                            

           TOTAL OUT =  4231427829.1104             TOTAL OUT =       74440.3765

            IN - OUT =       5.3329E-03              IN - OUT =      -5.5588E-08

 PERCENT DISCREPANCY =           0.00     PERCENT DISCREPANCY =          -0.00




         TIME SUMMARY AT END OF TIME STEP    9 IN STRESS PERIOD    3
                    SECONDS     MINUTES      HOURS       DAYS        YEARS
                    -----------------------------------------------------------
   TIME STEP LENGTH 3.15576E+07 5.25960E+05  8766.0      365.25      1.0000    
 STRESS PERIOD TIME 2.84018E+08 4.73364E+06  78894.      3287.2      9.0000    
         TOTAL TIME 2.17747E+09 3.62912E+07 6.04854E+05  25202.      69.000    


end timestep


start timestep kper="3" kstp="10" mode="normal"

 UBDSV1 SAVING           STO-SS ON UNIT   1020 AT TIME STEP     10, STRESS PERIOD      3
 UBDSV1 SAVING           STO-SY ON UNIT   1020 AT TIME STEP     10, STRESS PERIOD      3
 UBDSV1 SAVING     FLOW-JA-FACE ON UNIT   1020 AT TIME STEP     10, STRESS PERIOD      3
 UBDSV06 SAVING       DATA-SPDIS IN MODEL EX-GWF-CSUB-P04  PACKAGE NPF             CONNECTED TO MODEL EX-GWF-CSUB-P04  PACKAGE NPF              ON UNIT   1020 AT TIME STEP     10, STRESS PERIOD      3
 UBDSV1 SAVING  CSUB-CGELASTIC  ON UNIT   1020 AT TIME STEP     10, STRESS PERIOD      3
 UBDSV06 SAVING    CSUB-ELASTIC  IN MODEL EX-GWF-CSUB-P04  PACKAGE EX-GWF-CSUB-P04 CONNECTED TO MODEL EX-GWF-CSUB-P04  PACKAGE CSUB             ON UNIT   1020 AT TIME STEP     10, STRESS PERIOD      3
 UBDSV06 SAVING  CSUB-INELASTIC  IN MODEL EX-GWF-CSUB-P04  PACKAGE EX-GWF-CSUB-P04 CONNECTED TO MODEL EX-GWF-CSUB-P04  PACKAGE CSUB             ON UNIT   1020 AT TIME STEP     10, STRESS PERIOD      3
 UBDSV1 SAVING  CSUB-WATERCOMP  ON UNIT   1020 AT TIME STEP     10, STRESS PERIOD      3
 UBDSV06 SAVING              WEL IN MODEL EX-GWF-CSUB-P04  PACKAGE EX-GWF-CSUB-P04 CONNECTED TO MODEL EX-GWF-CSUB-P04  PACKAGE WEL_0            ON UNIT   1020 AT TIME STEP     10, STRESS PERIOD      3
 UBDSV06 SAVING              RCH IN MODEL EX-GWF-CSUB-P04  PACKAGE EX-GWF-CSUB-P04 CONNECTED TO MODEL EX-GWF-CSUB-P04  PACKAGE RCH_0            ON UNIT   1020 AT TIME STEP     10, STRESS PERIOD      3
 UBDSV06 SAVING              CHD IN MODEL EX-GWF-CSUB-P04  PACKAGE EX-GWF-CSUB-P04 CONNECTED TO MODEL EX-GWF-CSUB-P04  PACKAGE CHD_0            ON UNIT   1020 AT TIME STEP     10, STRESS PERIOD      3

 HEAD WILL BE SAVED ON UNIT 1021 AT END OF TIME STEP   10, STRESS PERIOD    3


  VOLUME BUDGET FOR ENTIRE MODEL AT END OF TIME STEP   10, STRESS PERIOD   3
  ---------------------------------------------------------------------------------------------------

     CUMULATIVE VOLUME      L**3       RATES FOR THIS TIME STEP      L**3/T          PACKAGE NAME    
     ------------------                 ------------------------                     ----------------

           IN:                                      IN:
           ---                                      ---
              STO-SS =           0.0000                STO-SS =           0.0000     STORAGE                          
              STO-SY =  3196702246.3378                STO-SY =       30772.2198     STORAGE                          
      CSUB-CGELASTIC =     7949209.4118        CSUB-CGELASTIC =         166.4480     CSUB                             
        CSUB-ELASTIC =    22414855.5966          CSUB-ELASTIC =         198.0757     CSUB                             
      CSUB-INELASTIC =     6317392.7041        CSUB-INELASTIC =           0.0000     CSUB                             
      CSUB-WATERCOMP =    11444631.8324        CSUB-WATERCOMP =         101.0574     CSUB                             
                 WEL =           0.0000                   WEL =           0.0000     WEL_0                            
                 RCH =  1012473000.0000                   RCH =       39600.0000     RCH_0                            
                 CHD =           0.0000                   CHD =           0.0000     CHD_0                            

            TOTAL IN =  4257301335.8827              TOTAL IN =       70837.8009

          OUT:                                     OUT:
          ----                                     ----
              STO-SS =           0.0000                STO-SS =           0.0000     STORAGE                          
              STO-SY =   242522967.5014                STO-SY =       44523.7305     STORAGE                          
      CSUB-CGELASTIC =     7722476.9359        CSUB-CGELASTIC =         161.0765     CSUB                             
        CSUB-ELASTIC =     1589788.2059          CSUB-ELASTIC =         262.1490     CSUB                             
      CSUB-INELASTIC =           0.0000        CSUB-INELASTIC =           0.0000     CSUB                             
      CSUB-WATERCOMP =      915449.7121        CSUB-WATERCOMP =         146.3416     CSUB                             
                 WEL =  3155760000.0000                   WEL =           0.0000     WEL_0                            
                 RCH =           0.0000                   RCH =           0.0000     RCH_0                            
                 CHD =   848790653.5221                   CHD =       25744.5033     CHD_0                            

           TOTAL OUT =  4257301335.8773             TOTAL OUT =       70837.8009

            IN - OUT =       5.3277E-03              IN - OUT =      -1.4363E-08

 PERCENT DISCREPANCY =           0.00     PERCENT DISCREPANCY =          -0.00




         TIME SUMMARY AT END OF TIME STEP   10 IN STRESS PERIOD    3
                    SECONDS     MINUTES      HOURS       DAYS        YEARS
                    -----------------------------------------------------------
   TIME STEP LENGTH 3.15576E+07 5.25960E+05  8766.0      365.25      1.0000    
 STRESS PERIOD TIME 3.15576E+08 5.25960E+06  87660.      3652.5      10.000    
         TOTAL TIME 2.20903E+09 3.68172E+07 6.13620E+05  25568.      70.000    


end timestep


start timestep kper="3" kstp="11" mode="normal"

 UBDSV1 SAVING           STO-SS ON UNIT   1020 AT TIME STEP     11, STRESS PERIOD      3
 UBDSV1 SAVING           STO-SY ON UNIT   1020 AT TIME STEP     11, STRESS PERIOD      3
 UBDSV1 SAVING     FLOW-JA-FACE ON UNIT   1020 AT TIME STEP     11, STRESS PERIOD      3
 UBDSV06 SAVING       DATA-SPDIS IN MODEL EX-GWF-CSUB-P04  PACKAGE NPF             CONNECTED TO MODEL EX-GWF-CSUB-P04  PACKAGE NPF              ON UNIT   1020 AT TIME STEP     11, STRESS PERIOD      3
 UBDSV1 SAVING  CSUB-CGELASTIC  ON UNIT   1020 AT TIME STEP     11, STRESS PERIOD      3
 UBDSV06 SAVING    CSUB-ELASTIC  IN MODEL EX-GWF-CSUB-P04  PACKAGE EX-GWF-CSUB-P04 CONNECTED TO MODEL EX-GWF-CSUB-P04  PACKAGE CSUB             ON UNIT   1020 AT TIME STEP     11, STRESS PERIOD      3
 UBDSV06 SAVING  CSUB-INELASTIC  IN MODEL EX-GWF-CSUB-P04  PACKAGE EX-GWF-CSUB-P04 CONNECTED TO MODEL EX-GWF-CSUB-P04  PACKAGE CSUB             ON UNIT   1020 AT TIME STEP     11, STRESS PERIOD      3
 UBDSV1 SAVING  CSUB-WATERCOMP  ON UNIT   1020 AT TIME STEP     11, STRESS PERIOD      3
 UBDSV06 SAVING              WEL IN MODEL EX-GWF-CSUB-P04  PACKAGE EX-GWF-CSUB-P04 CONNECTED TO MODEL EX-GWF-CSUB-P04  PACKAGE WEL_0            ON UNIT   1020 AT TIME STEP     11, STRESS PERIOD      3
 UBDSV06 SAVING              RCH IN MODEL EX-GWF-CSUB-P04  PACKAGE EX-GWF-CSUB-P04 CONNECTED TO MODEL EX-GWF-CSUB-P04  PACKAGE RCH_0            ON UNIT   1020 AT TIME STEP     11, STRESS PERIOD      3
 UBDSV06 SAVING              CHD IN MODEL EX-GWF-CSUB-P04  PACKAGE EX-GWF-CSUB-P04 CONNECTED TO MODEL EX-GWF-CSUB-P04  PACKAGE CHD_0            ON UNIT   1020 AT TIME STEP     11, STRESS PERIOD      3

 HEAD WILL BE SAVED ON UNIT 1021 AT END OF TIME STEP   11, STRESS PERIOD    3


  VOLUME BUDGET FOR ENTIRE MODEL AT END OF TIME STEP   11, STRESS PERIOD   3
  ---------------------------------------------------------------------------------------------------

     CUMULATIVE VOLUME      L**3       RATES FOR THIS TIME STEP      L**3/T          PACKAGE NAME    
     ------------------                 ------------------------                     ----------------

           IN:                                      IN:
           ---                                      ---
              STO-SS =           0.0000                STO-SS =           0.0000     STORAGE                          
              STO-SY =  3206799592.8525                STO-SY =       27645.0281     STORAGE                          
      CSUB-CGELASTIC =     8005098.0532        CSUB-CGELASTIC =         153.0148     CSUB                             
        CSUB-ELASTIC =    22480085.3379          CSUB-ELASTIC =         178.5893     CSUB                             
      CSUB-INELASTIC =     6317392.7041        CSUB-INELASTIC =           0.0000     CSUB                             
      CSUB-WATERCOMP =    11477845.6005        CSUB-WATERCOMP =          90.9343     CSUB                             
                 WEL =           0.0000                   WEL =           0.0000     WEL_0                            
                 RCH =  1026936900.0000                   RCH =       39600.0000     RCH_0                            
                 CHD =           0.0000                   CHD =           0.0000     CHD_0                            

            TOTAL IN =  4282016914.5483              TOTAL IN =       67667.5665

          OUT:                                     OUT:
          ----                                     ----
              STO-SS =           0.0000                STO-SS =           0.0000     STORAGE                          
              STO-SY =   257677887.8763                STO-SY =       41491.9107     STORAGE                          
      CSUB-CGELASTIC =     7776578.0962        CSUB-CGELASTIC =         148.1209     CSUB                             
        CSUB-ELASTIC =     1679589.1765          CSUB-ELASTIC =         245.8617     CSUB                             
      CSUB-INELASTIC =           0.0000        CSUB-INELASTIC =           0.0000     CSUB                             
      CSUB-WATERCOMP =      965431.6151        CSUB-WATERCOMP =         136.8430     CSUB                             
                 WEL =  3155760000.0000                   WEL =           0.0000     WEL_0                            
                 RCH =           0.0000                   RCH =           0.0000     RCH_0                            
                 CHD =   858157427.7789                   CHD =       25644.8303     CHD_0                            

           TOTAL OUT =  4282016914.5430             TOTAL OUT =       67667.5665

            IN - OUT =       5.3272E-03              IN - OUT =      -1.4697E-09

 PERCENT DISCREPANCY =           0.00     PERCENT DISCREPANCY =          -0.00




         TIME SUMMARY AT END OF TIME STEP   11 IN STRESS PERIOD    3
                    SECONDS     MINUTES      HOURS       DAYS        YEARS
                    -----------------------------------------------------------
   TIME STEP LENGTH 3.15576E+07 5.25960E+05  8766.0      365.25      1.0000    
 STRESS PERIOD TIME 3.47134E+08 5.78556E+06  96426.      4017.8      11.000    
         TOTAL TIME 2.24059E+09 3.73432E+07 6.22386E+05  25933.      71.000    


end timestep


start timestep kper="3" kstp="12" mode="normal"

 UBDSV1 SAVING           STO-SS ON UNIT   1020 AT TIME STEP     12, STRESS PERIOD      3
 UBDSV1 SAVING           STO-SY ON UNIT   1020 AT TIME STEP     12, STRESS PERIOD      3
 UBDSV1 SAVING     FLOW-JA-FACE ON UNIT   1020 AT TIME STEP     12, STRESS PERIOD      3
 UBDSV06 SAVING       DATA-SPDIS IN MODEL EX-GWF-CSUB-P04  PACKAGE NPF             CONNECTED TO MODEL EX-GWF-CSUB-P04  PACKAGE NPF              ON UNIT   1020 AT TIME STEP     12, STRESS PERIOD      3
 UBDSV1 SAVING  CSUB-CGELASTIC  ON UNIT   1020 AT TIME STEP     12, STRESS PERIOD      3
 UBDSV06 SAVING    CSUB-ELASTIC  IN MODEL EX-GWF-CSUB-P04  PACKAGE EX-GWF-CSUB-P04 CONNECTED TO MODEL EX-GWF-CSUB-P04  PACKAGE CSUB             ON UNIT   1020 AT TIME STEP     12, STRESS PERIOD      3
 UBDSV06 SAVING  CSUB-INELASTIC  IN MODEL EX-GWF-CSUB-P04  PACKAGE EX-GWF-CSUB-P04 CONNECTED TO MODEL EX-GWF-CSUB-P04  PACKAGE CSUB             ON UNIT   1020 AT TIME STEP     12, STRESS PERIOD      3
 UBDSV1 SAVING  CSUB-WATERCOMP  ON UNIT   1020 AT TIME STEP     12, STRESS PERIOD      3
 UBDSV06 SAVING              WEL IN MODEL EX-GWF-CSUB-P04  PACKAGE EX-GWF-CSUB-P04 CONNECTED TO MODEL EX-GWF-CSUB-P04  PACKAGE WEL_0            ON UNIT   1020 AT TIME STEP     12, STRESS PERIOD      3
 UBDSV06 SAVING              RCH IN MODEL EX-GWF-CSUB-P04  PACKAGE EX-GWF-CSUB-P04 CONNECTED TO MODEL EX-GWF-CSUB-P04  PACKAGE RCH_0            ON UNIT   1020 AT TIME STEP     12, STRESS PERIOD      3
 UBDSV06 SAVING              CHD IN MODEL EX-GWF-CSUB-P04  PACKAGE EX-GWF-CSUB-P04 CONNECTED TO MODEL EX-GWF-CSUB-P04  PACKAGE CHD_0            ON UNIT   1020 AT TIME STEP     12, STRESS PERIOD      3

 HEAD WILL BE SAVED ON UNIT 1021 AT END OF TIME STEP   12, STRESS PERIOD    3


  VOLUME BUDGET FOR ENTIRE MODEL AT END OF TIME STEP   12, STRESS PERIOD   3
  ---------------------------------------------------------------------------------------------------

     CUMULATIVE VOLUME      L**3       RATES FOR THIS TIME STEP      L**3/T          PACKAGE NAME    
     ------------------                 ------------------------                     ----------------

           IN:                                      IN:
           ---                                      ---
              STO-SS =           0.0000                STO-SS =           0.0000     STORAGE                          
              STO-SY =  3215877106.3546                STO-SY =       24852.8775     STORAGE                          
      CSUB-CGELASTIC =     8056618.2011        CSUB-CGELASTIC =         141.0545     CSUB                             
        CSUB-ELASTIC =    22538975.8810          CSUB-ELASTIC =         161.2335     CSUB                             
      CSUB-INELASTIC =     6317392.7041        CSUB-INELASTIC =           0.0000     CSUB                             
      CSUB-WATERCOMP =    11507771.2851        CSUB-WATERCOMP =          81.9321     CSUB                             
                 WEL =           0.0000                   WEL =           0.0000     WEL_0                            
                 RCH =  1041400800.0000                   RCH =       39600.0000     RCH_0                            
                 CHD =           0.0000                   CHD =           0.0000     CHD_0                            

            TOTAL IN =  4305698664.4260              TOTAL IN =       64837.0975

          OUT:                                     OUT:
          ----                                     ----
              STO-SS =           0.0000                STO-SS =           0.0000     STORAGE                          
              STO-SY =   271844040.2115                STO-SY =       38784.8113     STORAGE                          
      CSUB-CGELASTIC =     7826457.8279        CSUB-CGELASTIC =         136.5633     CSUB                             
        CSUB-ELASTIC =     1764055.7669          CSUB-ELASTIC =         231.2569     CSUB                             
      CSUB-INELASTIC =           0.0000        CSUB-INELASTIC =           0.0000     CSUB                             
      CSUB-WATERCOMP =     1012322.5274        CSUB-WATERCOMP =         128.3803     CSUB                             
                 WEL =  3155760000.0000                   WEL =           0.0000     WEL_0                            
                 RCH =           0.0000                   RCH =           0.0000     RCH_0                            
                 CHD =   867491788.0870                   CHD =       25556.0857     CHD_0                            

           TOTAL OUT =  4305698664.4206             TOTAL OUT =       64837.0975

            IN - OUT =       5.3272E-03              IN - OUT =       1.7826E-09

 PERCENT DISCREPANCY =           0.00     PERCENT DISCREPANCY =           0.00




         TIME SUMMARY AT END OF TIME STEP   12 IN STRESS PERIOD    3
                    SECONDS     MINUTES      HOURS       DAYS        YEARS
                    -----------------------------------------------------------
   TIME STEP LENGTH 3.15576E+07 5.25960E+05  8766.0      365.25      1.0000    
 STRESS PERIOD TIME 3.78691E+08 6.31152E+06 1.05192E+05  4383.0      12.000    
         TOTAL TIME 2.27215E+09 3.78691E+07 6.31152E+05  26298.      72.000    


end timestep


start timestep kper="3" kstp="13" mode="normal"

 UBDSV1 SAVING           STO-SS ON UNIT   1020 AT TIME STEP     13, STRESS PERIOD      3
 UBDSV1 SAVING           STO-SY ON UNIT   1020 AT TIME STEP     13, STRESS PERIOD      3
 UBDSV1 SAVING     FLOW-JA-FACE ON UNIT   1020 AT TIME STEP     13, STRESS PERIOD      3
 UBDSV06 SAVING       DATA-SPDIS IN MODEL EX-GWF-CSUB-P04  PACKAGE NPF             CONNECTED TO MODEL EX-GWF-CSUB-P04  PACKAGE NPF              ON UNIT   1020 AT TIME STEP     13, STRESS PERIOD      3
 UBDSV1 SAVING  CSUB-CGELASTIC  ON UNIT   1020 AT TIME STEP     13, STRESS PERIOD      3
 UBDSV06 SAVING    CSUB-ELASTIC  IN MODEL EX-GWF-CSUB-P04  PACKAGE EX-GWF-CSUB-P04 CONNECTED TO MODEL EX-GWF-CSUB-P04  PACKAGE CSUB             ON UNIT   1020 AT TIME STEP     13, STRESS PERIOD      3
 UBDSV06 SAVING  CSUB-INELASTIC  IN MODEL EX-GWF-CSUB-P04  PACKAGE EX-GWF-CSUB-P04 CONNECTED TO MODEL EX-GWF-CSUB-P04  PACKAGE CSUB             ON UNIT   1020 AT TIME STEP     13, STRESS PERIOD      3
 UBDSV1 SAVING  CSUB-WATERCOMP  ON UNIT   1020 AT TIME STEP     13, STRESS PERIOD      3
 UBDSV06 SAVING              WEL IN MODEL EX-GWF-CSUB-P04  PACKAGE EX-GWF-CSUB-P04 CONNECTED TO MODEL EX-GWF-CSUB-P04  PACKAGE WEL_0            ON UNIT   1020 AT TIME STEP     13, STRESS PERIOD      3
 UBDSV06 SAVING              RCH IN MODEL EX-GWF-CSUB-P04  PACKAGE EX-GWF-CSUB-P04 CONNECTED TO MODEL EX-GWF-CSUB-P04  PACKAGE RCH_0            ON UNIT   1020 AT TIME STEP     13, STRESS PERIOD      3
 UBDSV06 SAVING              CHD IN MODEL EX-GWF-CSUB-P04  PACKAGE EX-GWF-CSUB-P04 CONNECTED TO MODEL EX-GWF-CSUB-P04  PACKAGE CHD_0            ON UNIT   1020 AT TIME STEP     13, STRESS PERIOD      3

 HEAD WILL BE SAVED ON UNIT 1021 AT END OF TIME STEP   13, STRESS PERIOD    3


  VOLUME BUDGET FOR ENTIRE MODEL AT END OF TIME STEP   13, STRESS PERIOD   3
  ---------------------------------------------------------------------------------------------------

     CUMULATIVE VOLUME      L**3       RATES FOR THIS TIME STEP      L**3/T          PACKAGE NAME    
     ------------------                 ------------------------                     ----------------

           IN:                                      IN:
           ---                                      ---
              STO-SS =           0.0000                STO-SS =           0.0000     STORAGE                          
              STO-SY =  3224048902.3669                STO-SY =       22373.1581     STORAGE                          
      CSUB-CGELASTIC =     8104274.2148        CSUB-CGELASTIC =         130.4751     CSUB                             
        CSUB-ELASTIC =    22592251.0343          CSUB-ELASTIC =         145.8594     CSUB                             
      CSUB-INELASTIC =     6317392.7041        CSUB-INELASTIC =           0.0000     CSUB                             
      CSUB-WATERCOMP =    11534786.6039        CSUB-WATERCOMP =          73.9639     CSUB                             
                 WEL =           0.0000                   WEL =           0.0000     WEL_0                            
                 RCH =  1055864700.0000                   RCH =       39600.0000     RCH_0                            
                 CHD =           0.0000                   CHD =           0.0000     CHD_0                            

            TOTAL IN =  4328462306.9240              TOTAL IN =       62323.4565

          OUT:                                     OUT:
          ----                                     ----
              STO-SS =           0.0000                STO-SS =           0.0000     STORAGE                          
              STO-SY =   285131951.7239                STO-SY =       36380.3190     STORAGE                          
      CSUB-CGELASTIC =     7872598.3407        CSUB-CGELASTIC =         126.3258     CSUB                             
        CSUB-ELASTIC =     1843773.8604          CSUB-ELASTIC =         218.2562     CSUB                             
      CSUB-INELASTIC =           0.0000        CSUB-INELASTIC =           0.0000     CSUB                             
      CSUB-WATERCOMP =     1056473.3873        CSUB-WATERCOMP =         120.8785     CSUB                             
                 WEL =  3155760000.0000                   WEL =           0.0000     WEL_0                            
                 RCH =           0.0000                   RCH =           0.0000     RCH_0                            
                 CHD =   876797509.6064                   CHD =       25477.6770     CHD_0                            

           TOTAL OUT =  4328462306.9186             TOTAL OUT =       62323.4565

            IN - OUT =       5.3596E-03              IN - OUT =       8.6016E-08

 PERCENT DISCREPANCY =           0.00     PERCENT DISCREPANCY =           0.00




         TIME SUMMARY AT END OF TIME STEP   13 IN STRESS PERIOD    3
                    SECONDS     MINUTES      HOURS       DAYS        YEARS
                    -----------------------------------------------------------
   TIME STEP LENGTH 3.15576E+07 5.25960E+05  8766.0      365.25      1.0000    
 STRESS PERIOD TIME 4.10249E+08 6.83748E+06 1.13958E+05  4748.2      13.000    
         TOTAL TIME 2.30370E+09 3.83951E+07 6.39918E+05  26663.      73.000    


end timestep


start timestep kper="3" kstp="14" mode="normal"

 UBDSV1 SAVING           STO-SS ON UNIT   1020 AT TIME STEP     14, STRESS PERIOD      3
 UBDSV1 SAVING           STO-SY ON UNIT   1020 AT TIME STEP     14, STRESS PERIOD      3
 UBDSV1 SAVING     FLOW-JA-FACE ON UNIT   1020 AT TIME STEP     14, STRESS PERIOD      3
 UBDSV06 SAVING       DATA-SPDIS IN MODEL EX-GWF-CSUB-P04  PACKAGE NPF             CONNECTED TO MODEL EX-GWF-CSUB-P04  PACKAGE NPF              ON UNIT   1020 AT TIME STEP     14, STRESS PERIOD      3
 UBDSV1 SAVING  CSUB-CGELASTIC  ON UNIT   1020 AT TIME STEP     14, STRESS PERIOD      3
 UBDSV06 SAVING    CSUB-ELASTIC  IN MODEL EX-GWF-CSUB-P04  PACKAGE EX-GWF-CSUB-P04 CONNECTED TO MODEL EX-GWF-CSUB-P04  PACKAGE CSUB             ON UNIT   1020 AT TIME STEP     14, STRESS PERIOD      3
 UBDSV06 SAVING  CSUB-INELASTIC  IN MODEL EX-GWF-CSUB-P04  PACKAGE EX-GWF-CSUB-P04 CONNECTED TO MODEL EX-GWF-CSUB-P04  PACKAGE CSUB             ON UNIT   1020 AT TIME STEP     14, STRESS PERIOD      3
 UBDSV1 SAVING  CSUB-WATERCOMP  ON UNIT   1020 AT TIME STEP     14, STRESS PERIOD      3
 UBDSV06 SAVING              WEL IN MODEL EX-GWF-CSUB-P04  PACKAGE EX-GWF-CSUB-P04 CONNECTED TO MODEL EX-GWF-CSUB-P04  PACKAGE WEL_0            ON UNIT   1020 AT TIME STEP     14, STRESS PERIOD      3
 UBDSV06 SAVING              RCH IN MODEL EX-GWF-CSUB-P04  PACKAGE EX-GWF-CSUB-P04 CONNECTED TO MODEL EX-GWF-CSUB-P04  PACKAGE RCH_0            ON UNIT   1020 AT TIME STEP     14, STRESS PERIOD      3
 UBDSV06 SAVING              CHD IN MODEL EX-GWF-CSUB-P04  PACKAGE EX-GWF-CSUB-P04 CONNECTED TO MODEL EX-GWF-CSUB-P04  PACKAGE CHD_0            ON UNIT   1020 AT TIME STEP     14, STRESS PERIOD      3

 HEAD WILL BE SAVED ON UNIT 1021 AT END OF TIME STEP   14, STRESS PERIOD    3


  VOLUME BUDGET FOR ENTIRE MODEL AT END OF TIME STEP   14, STRESS PERIOD   3
  ---------------------------------------------------------------------------------------------------

     CUMULATIVE VOLUME      L**3       RATES FOR THIS TIME STEP      L**3/T          PACKAGE NAME    
     ------------------                 ------------------------                     ----------------

           IN:                                      IN:
           ---                                      ---
              STO-SS =           0.0000                STO-SS =           0.0000     STORAGE                          
              STO-SY =  3231424893.9372                STO-SY =       20194.3643     STORAGE                          
      CSUB-CGELASTIC =     8148529.4506        CSUB-CGELASTIC =         121.1642     CSUB                             
        CSUB-ELASTIC =    22640568.8645          CSUB-ELASTIC =         132.2870     CSUB                             
      CSUB-INELASTIC =     6317392.7041        CSUB-INELASTIC =           0.0000     CSUB                             
      CSUB-WATERCOMP =    11559247.9646        CSUB-WATERCOMP =          66.9716     CSUB                             
                 WEL =           0.0000                   WEL =           0.0000     WEL_0                            
                 RCH =  1070328600.0000                   RCH =       39600.0000     RCH_0                            
                 CHD =           0.0000                   CHD =           0.0000     CHD_0                            

            TOTAL IN =  4350419232.9210              TOTAL IN =       60114.7871

          OUT:                                     OUT:
          ----                                     ----
              STO-SS =           0.0000                STO-SS =           0.0000     STORAGE                          
              STO-SY =   297648140.7309                STO-SY =       34267.4579     STORAGE                          
      CSUB-CGELASTIC =     7915444.9423        CSUB-CGELASTIC =         117.3076     CSUB                             
        CSUB-ELASTIC =     1919284.5700          CSUB-ELASTIC =         206.7371     CSUB                             
      CSUB-INELASTIC =           0.0000        CSUB-INELASTIC =           0.0000     CSUB                             
      CSUB-WATERCOMP =     1098217.2599        CSUB-WATERCOMP =         114.2885     CSUB                             
                 WEL =  3155760000.0000                   WEL =           0.0000     WEL_0                            
                 RCH =           0.0000                   RCH =           0.0000     RCH_0                            
                 CHD =   886078145.4126                   CHD =       25408.9960     CHD_0                            

           TOTAL OUT =  4350419232.9156             TOTAL OUT =       60114.7871

            IN - OUT =       5.3692E-03              IN - OUT =       2.9839E-08

 PERCENT DISCREPANCY =           0.00     PERCENT DISCREPANCY =           0.00




         TIME SUMMARY AT END OF TIME STEP   14 IN STRESS PERIOD    3
                    SECONDS     MINUTES      HOURS       DAYS        YEARS
                    -----------------------------------------------------------
   TIME STEP LENGTH 3.15576E+07 5.25960E+05  8766.0      365.25      1.0000    
 STRESS PERIOD TIME 4.41806E+08 7.36344E+06 1.22724E+05  5113.5      14.000    
         TOTAL TIME 2.33526E+09 3.89210E+07 6.48684E+05  27028.      74.000    


end timestep


start timestep kper="3" kstp="15" mode="normal"

 UBDSV1 SAVING           STO-SS ON UNIT   1020 AT TIME STEP     15, STRESS PERIOD      3
 UBDSV1 SAVING           STO-SY ON UNIT   1020 AT TIME STEP     15, STRESS PERIOD      3
 UBDSV1 SAVING     FLOW-JA-FACE ON UNIT   1020 AT TIME STEP     15, STRESS PERIOD      3
 UBDSV06 SAVING       DATA-SPDIS IN MODEL EX-GWF-CSUB-P04  PACKAGE NPF             CONNECTED TO MODEL EX-GWF-CSUB-P04  PACKAGE NPF              ON UNIT   1020 AT TIME STEP     15, STRESS PERIOD      3
 UBDSV1 SAVING  CSUB-CGELASTIC  ON UNIT   1020 AT TIME STEP     15, STRESS PERIOD      3
 UBDSV06 SAVING    CSUB-ELASTIC  IN MODEL EX-GWF-CSUB-P04  PACKAGE EX-GWF-CSUB-P04 CONNECTED TO MODEL EX-GWF-CSUB-P04  PACKAGE CSUB             ON UNIT   1020 AT TIME STEP     15, STRESS PERIOD      3
 UBDSV06 SAVING  CSUB-INELASTIC  IN MODEL EX-GWF-CSUB-P04  PACKAGE EX-GWF-CSUB-P04 CONNECTED TO MODEL EX-GWF-CSUB-P04  PACKAGE CSUB             ON UNIT   1020 AT TIME STEP     15, STRESS PERIOD      3
 UBDSV1 SAVING  CSUB-WATERCOMP  ON UNIT   1020 AT TIME STEP     15, STRESS PERIOD      3
 UBDSV06 SAVING              WEL IN MODEL EX-GWF-CSUB-P04  PACKAGE EX-GWF-CSUB-P04 CONNECTED TO MODEL EX-GWF-CSUB-P04  PACKAGE WEL_0            ON UNIT   1020 AT TIME STEP     15, STRESS PERIOD      3
 UBDSV06 SAVING              RCH IN MODEL EX-GWF-CSUB-P04  PACKAGE EX-GWF-CSUB-P04 CONNECTED TO MODEL EX-GWF-CSUB-P04  PACKAGE RCH_0            ON UNIT   1020 AT TIME STEP     15, STRESS PERIOD      3
 UBDSV06 SAVING              CHD IN MODEL EX-GWF-CSUB-P04  PACKAGE EX-GWF-CSUB-P04 CONNECTED TO MODEL EX-GWF-CSUB-P04  PACKAGE CHD_0            ON UNIT   1020 AT TIME STEP     15, STRESS PERIOD      3

 HEAD WILL BE SAVED ON UNIT 1021 AT END OF TIME STEP   15, STRESS PERIOD    3


  VOLUME BUDGET FOR ENTIRE MODEL AT END OF TIME STEP   15, STRESS PERIOD   3
  ---------------------------------------------------------------------------------------------------

     CUMULATIVE VOLUME      L**3       RATES FOR THIS TIME STEP      L**3/T          PACKAGE NAME    
     ------------------                 ------------------------                     ----------------

           IN:                                      IN:
           ---                                      ---
              STO-SS =           0.0000                STO-SS =           0.0000     STORAGE                          
              STO-SY =  3238099954.6243                STO-SY =       18275.3202     STORAGE                          
      CSUB-CGELASTIC =     8189793.1833        CSUB-CGELASTIC =         112.9739     CSUB                             
        CSUB-ELASTIC =    22684512.9979          CSUB-ELASTIC =         120.3125     CSUB                             
      CSUB-INELASTIC =     6317392.7041        CSUB-INELASTIC =           0.0000     CSUB                             
      CSUB-WATERCOMP =    11581452.6224        CSUB-WATERCOMP =          60.7930     CSUB                             
                 WEL =           0.0000                   WEL =           0.0000     WEL_0                            
                 RCH =  1084792500.0000                   RCH =       39600.0000     RCH_0                            
                 CHD =           0.0000                   CHD =           0.0000     CHD_0                            

            TOTAL IN =  4371665606.1320              TOTAL IN =       58169.3996

          OUT:                                     OUT:
          ----                                     ----
              STO-SS =           0.0000                STO-SS =           0.0000     STORAGE                          
              STO-SY =   309484285.3572                STO-SY =       32405.5979     STORAGE                          
      CSUB-CGELASTIC =     7955392.1029        CSUB-CGELASTIC =         109.3694     CSUB                             
        CSUB-ELASTIC =     1991071.8275          CSUB-ELASTIC =         196.5428     CSUB                             
      CSUB-INELASTIC =           0.0000        CSUB-INELASTIC =           0.0000     CSUB                             
      CSUB-WATERCOMP =     1137830.9182        CSUB-WATERCOMP =         108.4563     CSUB                             
                 WEL =  3155760000.0000                   WEL =           0.0000     WEL_0                            
                 RCH =           0.0000                   RCH =           0.0000     RCH_0                            
                 CHD =   895337025.9209                   CHD =       25349.4333     CHD_0                            

           TOTAL OUT =  4371665606.1266             TOTAL OUT =       58169.3996

            IN - OUT =       5.3911E-03              IN - OUT =       5.7000E-08

 PERCENT DISCREPANCY =           0.00     PERCENT DISCREPANCY =           0.00




         TIME SUMMARY AT END OF TIME STEP   15 IN STRESS PERIOD    3
                    SECONDS     MINUTES      HOURS       DAYS        YEARS
                    -----------------------------------------------------------
   TIME STEP LENGTH 3.15576E+07 5.25960E+05  8766.0      365.25      1.0000    
 STRESS PERIOD TIME 4.73364E+08 7.88940E+06 1.31490E+05  5478.8      15.000    
         TOTAL TIME 2.36682E+09 3.94470E+07 6.57450E+05  27394.      75.000    


end timestep


start timestep kper="3" kstp="16" mode="normal"

 UBDSV1 SAVING           STO-SS ON UNIT   1020 AT TIME STEP     16, STRESS PERIOD      3
 UBDSV1 SAVING           STO-SY ON UNIT   1020 AT TIME STEP     16, STRESS PERIOD      3
 UBDSV1 SAVING     FLOW-JA-FACE ON UNIT   1020 AT TIME STEP     16, STRESS PERIOD      3
 UBDSV06 SAVING       DATA-SPDIS IN MODEL EX-GWF-CSUB-P04  PACKAGE NPF             CONNECTED TO MODEL EX-GWF-CSUB-P04  PACKAGE NPF              ON UNIT   1020 AT TIME STEP     16, STRESS PERIOD      3
 UBDSV1 SAVING  CSUB-CGELASTIC  ON UNIT   1020 AT TIME STEP     16, STRESS PERIOD      3
 UBDSV06 SAVING    CSUB-ELASTIC  IN MODEL EX-GWF-CSUB-P04  PACKAGE EX-GWF-CSUB-P04 CONNECTED TO MODEL EX-GWF-CSUB-P04  PACKAGE CSUB             ON UNIT   1020 AT TIME STEP     16, STRESS PERIOD      3
 UBDSV06 SAVING  CSUB-INELASTIC  IN MODEL EX-GWF-CSUB-P04  PACKAGE EX-GWF-CSUB-P04 CONNECTED TO MODEL EX-GWF-CSUB-P04  PACKAGE CSUB             ON UNIT   1020 AT TIME STEP     16, STRESS PERIOD      3
 UBDSV1 SAVING  CSUB-WATERCOMP  ON UNIT   1020 AT TIME STEP     16, STRESS PERIOD      3
 UBDSV06 SAVING              WEL IN MODEL EX-GWF-CSUB-P04  PACKAGE EX-GWF-CSUB-P04 CONNECTED TO MODEL EX-GWF-CSUB-P04  PACKAGE WEL_0            ON UNIT   1020 AT TIME STEP     16, STRESS PERIOD      3
 UBDSV06 SAVING              RCH IN MODEL EX-GWF-CSUB-P04  PACKAGE EX-GWF-CSUB-P04 CONNECTED TO MODEL EX-GWF-CSUB-P04  PACKAGE RCH_0            ON UNIT   1020 AT TIME STEP     16, STRESS PERIOD      3
 UBDSV06 SAVING              CHD IN MODEL EX-GWF-CSUB-P04  PACKAGE EX-GWF-CSUB-P04 CONNECTED TO MODEL EX-GWF-CSUB-P04  PACKAGE CHD_0            ON UNIT   1020 AT TIME STEP     16, STRESS PERIOD      3

 HEAD WILL BE SAVED ON UNIT 1021 AT END OF TIME STEP   16, STRESS PERIOD    3


  VOLUME BUDGET FOR ENTIRE MODEL AT END OF TIME STEP   16, STRESS PERIOD   3
  ---------------------------------------------------------------------------------------------------

     CUMULATIVE VOLUME      L**3       RATES FOR THIS TIME STEP      L**3/T          PACKAGE NAME    
     ------------------                 ------------------------                     ----------------

           IN:                                      IN:
           ---                                      ---
              STO-SS =           0.0000                STO-SS =           0.0000     STORAGE                          
              STO-SY =  3244164574.7301                STO-SY =       16604.0249     STORAGE                          
      CSUB-CGELASTIC =     8228443.6590        CSUB-CGELASTIC =         105.8192     CSUB                             
        CSUB-ELASTIC =    22724610.8166          CSUB-ELASTIC =         109.7818     CSUB                             
      CSUB-INELASTIC =     6317392.7041        CSUB-INELASTIC =           0.0000     CSUB                             
      CSUB-WATERCOMP =    11601682.6373        CSUB-WATERCOMP =          55.3868     CSUB                             
                 WEL =           0.0000                   WEL =           0.0000     WEL_0                            
                 RCH =  1099256400.0000                   RCH =       39600.0000     RCH_0                            
                 CHD =           0.0000                   CHD =           0.0000     CHD_0                            

            TOTAL IN =  4392293104.5471              TOTAL IN =       56475.0128

          OUT:                                     OUT:
          ----                                     ----
              STO-SS =           0.0000                STO-SS =           0.0000     STORAGE                          
              STO-SY =   320727880.6160                STO-SY =       30783.2861     STORAGE                          
      CSUB-CGELASTIC =     7992805.8561        CSUB-CGELASTIC =         102.4333     CSUB                             
        CSUB-ELASTIC =     2059577.6238          CSUB-ELASTIC =         187.5586     CSUB                             
      CSUB-INELASTIC =           0.0000        CSUB-INELASTIC =           0.0000     CSUB                             
      CSUB-WATERCOMP =     1175578.3543        CSUB-WATERCOMP =         103.3468     CSUB                             
                 WEL =  3155760000.0000                   WEL =           0.0000     WEL_0                            
                 RCH =           0.0000                   RCH =           0.0000     RCH_0                            
                 CHD =   904577262.0915                   CHD =       25298.3879     CHD_0                            

           TOTAL OUT =  4392293104.5417             TOTAL OUT =       56475.0128

            IN - OUT =       5.4245E-03              IN - OUT =       9.0564E-08

 PERCENT DISCREPANCY =           0.00     PERCENT DISCREPANCY =           0.00




         TIME SUMMARY AT END OF TIME STEP   16 IN STRESS PERIOD    3
                    SECONDS     MINUTES      HOURS       DAYS        YEARS
                    -----------------------------------------------------------
   TIME STEP LENGTH 3.15576E+07 5.25960E+05  8766.0      365.25      1.0000    
 STRESS PERIOD TIME 5.04922E+08 8.41536E+06 1.40256E+05  5844.0      16.000    
         TOTAL TIME 2.39838E+09 3.99730E+07 6.66216E+05  27759.      76.000    


end timestep


start timestep kper="3" kstp="17" mode="normal"

 UBDSV1 SAVING           STO-SS ON UNIT   1020 AT TIME STEP     17, STRESS PERIOD      3
 UBDSV1 SAVING           STO-SY ON UNIT   1020 AT TIME STEP     17, STRESS PERIOD      3
 UBDSV1 SAVING     FLOW-JA-FACE ON UNIT   1020 AT TIME STEP     17, STRESS PERIOD      3
 UBDSV06 SAVING       DATA-SPDIS IN MODEL EX-GWF-CSUB-P04  PACKAGE NPF             CONNECTED TO MODEL EX-GWF-CSUB-P04  PACKAGE NPF              ON UNIT   1020 AT TIME STEP     17, STRESS PERIOD      3
 UBDSV1 SAVING  CSUB-CGELASTIC  ON UNIT   1020 AT TIME STEP     17, STRESS PERIOD      3
 UBDSV06 SAVING    CSUB-ELASTIC  IN MODEL EX-GWF-CSUB-P04  PACKAGE EX-GWF-CSUB-P04 CONNECTED TO MODEL EX-GWF-CSUB-P04  PACKAGE CSUB             ON UNIT   1020 AT TIME STEP     17, STRESS PERIOD      3
 UBDSV06 SAVING  CSUB-INELASTIC  IN MODEL EX-GWF-CSUB-P04  PACKAGE EX-GWF-CSUB-P04 CONNECTED TO MODEL EX-GWF-CSUB-P04  PACKAGE CSUB             ON UNIT   1020 AT TIME STEP     17, STRESS PERIOD      3
 UBDSV1 SAVING  CSUB-WATERCOMP  ON UNIT   1020 AT TIME STEP     17, STRESS PERIOD      3
 UBDSV06 SAVING              WEL IN MODEL EX-GWF-CSUB-P04  PACKAGE EX-GWF-CSUB-P04 CONNECTED TO MODEL EX-GWF-CSUB-P04  PACKAGE WEL_0            ON UNIT   1020 AT TIME STEP     17, STRESS PERIOD      3
 UBDSV06 SAVING              RCH IN MODEL EX-GWF-CSUB-P04  PACKAGE EX-GWF-CSUB-P04 CONNECTED TO MODEL EX-GWF-CSUB-P04  PACKAGE RCH_0            ON UNIT   1020 AT TIME STEP     17, STRESS PERIOD      3
 UBDSV06 SAVING              CHD IN MODEL EX-GWF-CSUB-P04  PACKAGE EX-GWF-CSUB-P04 CONNECTED TO MODEL EX-GWF-CSUB-P04  PACKAGE CHD_0            ON UNIT   1020 AT TIME STEP     17, STRESS PERIOD      3

 HEAD WILL BE SAVED ON UNIT 1021 AT END OF TIME STEP   17, STRESS PERIOD    3


  VOLUME BUDGET FOR ENTIRE MODEL AT END OF TIME STEP   17, STRESS PERIOD   3
  ---------------------------------------------------------------------------------------------------

     CUMULATIVE VOLUME      L**3       RATES FOR THIS TIME STEP      L**3/T          PACKAGE NAME    
     ------------------                 ------------------------                     ----------------

           IN:                                      IN:
           ---                                      ---
              STO-SS =           0.0000                STO-SS =           0.0000     STORAGE                          
              STO-SY =  3249685855.3631                STO-SY =       15116.4425     STORAGE                          
      CSUB-CGELASTIC =     8264758.0109        CSUB-CGELASTIC =          99.4233     CSUB                             
        CSUB-ELASTIC =    22761271.4234          CSUB-ELASTIC =         100.3713     CSUB                             
      CSUB-INELASTIC =     6317392.7041        CSUB-INELASTIC =           0.0000     CSUB                             
      CSUB-WATERCOMP =    11620155.2847        CSUB-WATERCOMP =          50.5754     CSUB                             
                 WEL =           0.0000                   WEL =           0.0000     WEL_0                            
                 RCH =  1113720300.0000                   RCH =       39600.0000     RCH_0                            
                 CHD =           0.0000                   CHD =           0.0000     CHD_0                            

            TOTAL IN =  4412369732.7862              TOTAL IN =       54966.8124

          OUT:                                     OUT:
          ----                                     ----
              STO-SS =           0.0000                STO-SS =           0.0000     STORAGE                          
              STO-SY =   331443229.7611                STO-SY =       29337.0271     STORAGE                          
      CSUB-CGELASTIC =     8027953.2111        CSUB-CGELASTIC =          96.2282     CSUB                             
        CSUB-ELASTIC =     2125137.5943          CSUB-ELASTIC =         179.4934     CSUB                             
      CSUB-INELASTIC =           0.0000        CSUB-INELASTIC =           0.0000     CSUB                             
      CSUB-WATERCOMP =     1211660.8352        CSUB-WATERCOMP =          98.7884     CSUB                             
                 WEL =  3155760000.0000                   WEL =           0.0000     WEL_0                            
                 RCH =           0.0000                   RCH =           0.0000     RCH_0                            
                 CHD =   913801751.3791                   CHD =       25255.2753     CHD_0                            

           TOTAL OUT =  4412369732.7808             TOTAL OUT =       54966.8124

            IN - OUT =       5.4445E-03              IN - OUT =       5.6622E-08

 PERCENT DISCREPANCY =           0.00     PERCENT DISCREPANCY =           0.00




         TIME SUMMARY AT END OF TIME STEP   17 IN STRESS PERIOD    3
                    SECONDS     MINUTES      HOURS       DAYS        YEARS
                    -----------------------------------------------------------
   TIME STEP LENGTH 3.15576E+07 5.25960E+05  8766.0      365.25      1.0000    
 STRESS PERIOD TIME 5.36479E+08 8.94132E+06 1.49022E+05  6209.2      17.000    
         TOTAL TIME 2.42994E+09 4.04989E+07 6.74982E+05  28124.      77.000    


end timestep


start timestep kper="3" kstp="18" mode="normal"

 UBDSV1 SAVING           STO-SS ON UNIT   1020 AT TIME STEP     18, STRESS PERIOD      3
 UBDSV1 SAVING           STO-SY ON UNIT   1020 AT TIME STEP     18, STRESS PERIOD      3
 UBDSV1 SAVING     FLOW-JA-FACE ON UNIT   1020 AT TIME STEP     18, STRESS PERIOD      3
 UBDSV06 SAVING       DATA-SPDIS IN MODEL EX-GWF-CSUB-P04  PACKAGE NPF             CONNECTED TO MODEL EX-GWF-CSUB-P04  PACKAGE NPF              ON UNIT   1020 AT TIME STEP     18, STRESS PERIOD      3
 UBDSV1 SAVING  CSUB-CGELASTIC  ON UNIT   1020 AT TIME STEP     18, STRESS PERIOD      3
 UBDSV06 SAVING    CSUB-ELASTIC  IN MODEL EX-GWF-CSUB-P04  PACKAGE EX-GWF-CSUB-P04 CONNECTED TO MODEL EX-GWF-CSUB-P04  PACKAGE CSUB             ON UNIT   1020 AT TIME STEP     18, STRESS PERIOD      3
 UBDSV06 SAVING  CSUB-INELASTIC  IN MODEL EX-GWF-CSUB-P04  PACKAGE EX-GWF-CSUB-P04 CONNECTED TO MODEL EX-GWF-CSUB-P04  PACKAGE CSUB             ON UNIT   1020 AT TIME STEP     18, STRESS PERIOD      3
 UBDSV1 SAVING  CSUB-WATERCOMP  ON UNIT   1020 AT TIME STEP     18, STRESS PERIOD      3
 UBDSV06 SAVING              WEL IN MODEL EX-GWF-CSUB-P04  PACKAGE EX-GWF-CSUB-P04 CONNECTED TO MODEL EX-GWF-CSUB-P04  PACKAGE WEL_0            ON UNIT   1020 AT TIME STEP     18, STRESS PERIOD      3
 UBDSV06 SAVING              RCH IN MODEL EX-GWF-CSUB-P04  PACKAGE EX-GWF-CSUB-P04 CONNECTED TO MODEL EX-GWF-CSUB-P04  PACKAGE RCH_0            ON UNIT   1020 AT TIME STEP     18, STRESS PERIOD      3
 UBDSV06 SAVING              CHD IN MODEL EX-GWF-CSUB-P04  PACKAGE EX-GWF-CSUB-P04 CONNECTED TO MODEL EX-GWF-CSUB-P04  PACKAGE CHD_0            ON UNIT   1020 AT TIME STEP     18, STRESS PERIOD      3

 HEAD WILL BE SAVED ON UNIT 1021 AT END OF TIME STEP   18, STRESS PERIOD    3


  VOLUME BUDGET FOR ENTIRE MODEL AT END OF TIME STEP   18, STRESS PERIOD   3
  ---------------------------------------------------------------------------------------------------

     CUMULATIVE VOLUME      L**3       RATES FOR THIS TIME STEP      L**3/T          PACKAGE NAME    
     ------------------                 ------------------------                     ----------------

           IN:                                      IN:
           ---                                      ---
              STO-SS =           0.0000                STO-SS =           0.0000     STORAGE                          
              STO-SY =  3254728301.8005                STO-SY =       13805.4659     STORAGE                          
      CSUB-CGELASTIC =     8299005.3563        CSUB-CGELASTIC =          93.7641     CSUB                             
        CSUB-ELASTIC =    22794873.5611          CSUB-ELASTIC =          91.9976     CSUB                             
      CSUB-INELASTIC =     6317392.7041        CSUB-INELASTIC =           0.0000     CSUB                             
      CSUB-WATERCOMP =    11637061.6370        CSUB-WATERCOMP =          46.2871     CSUB                             
                 WEL =           0.0000                   WEL =           0.0000     WEL_0                            
                 RCH =  1128184200.0000                   RCH =       39600.0000     RCH_0                            
                 CHD =           0.0000                   CHD =           0.0000     CHD_0                            

            TOTAL IN =  4431960835.0589              TOTAL IN =       53637.5148

          OUT:                                     OUT:
          ----                                     ----
              STO-SS =           0.0000                STO-SS =           0.0000     STORAGE                          
              STO-SY =   341692232.3976                STO-SY =       28060.2399     STORAGE                          
      CSUB-CGELASTIC =     8061094.8547        CSUB-CGELASTIC =          90.7369     CSUB                             
        CSUB-ELASTIC =     2188067.0062          CSUB-ELASTIC =         172.2913     CSUB                             
      CSUB-INELASTIC =           0.0000        CSUB-INELASTIC =           0.0000     CSUB                             
      CSUB-WATERCOMP =     1246255.1971        CSUB-WATERCOMP =          94.7142     CSUB                             
                 WEL =  3155760000.0000                   WEL =           0.0000     WEL_0                            
                 RCH =           0.0000                   RCH =           0.0000     RCH_0                            
                 CHD =   923013185.5979                   CHD =       25219.5324     CHD_0                            

           TOTAL OUT =  4431960835.0535             TOTAL OUT =       53637.5148

            IN - OUT =       5.4255E-03              IN - OUT =      -5.1310E-08

 PERCENT DISCREPANCY =           0.00     PERCENT DISCREPANCY =          -0.00




         TIME SUMMARY AT END OF TIME STEP   18 IN STRESS PERIOD    3
                    SECONDS     MINUTES      HOURS       DAYS        YEARS
                    -----------------------------------------------------------
   TIME STEP LENGTH 3.15576E+07 5.25960E+05  8766.0      365.25      1.0000    
 STRESS PERIOD TIME 5.68037E+08 9.46728E+06 1.57788E+05  6574.5      18.000    
         TOTAL TIME 2.46149E+09 4.10249E+07 6.83748E+05  28490.      78.000    


end timestep


start timestep kper="3" kstp="19" mode="normal"

 UBDSV1 SAVING           STO-SS ON UNIT   1020 AT TIME STEP     19, STRESS PERIOD      3
 UBDSV1 SAVING           STO-SY ON UNIT   1020 AT TIME STEP     19, STRESS PERIOD      3
 UBDSV1 SAVING     FLOW-JA-FACE ON UNIT   1020 AT TIME STEP     19, STRESS PERIOD      3
 UBDSV06 SAVING       DATA-SPDIS IN MODEL EX-GWF-CSUB-P04  PACKAGE NPF             CONNECTED TO MODEL EX-GWF-CSUB-P04  PACKAGE NPF              ON UNIT   1020 AT TIME STEP     19, STRESS PERIOD      3
 UBDSV1 SAVING  CSUB-CGELASTIC  ON UNIT   1020 AT TIME STEP     19, STRESS PERIOD      3
 UBDSV06 SAVING    CSUB-ELASTIC  IN MODEL EX-GWF-CSUB-P04  PACKAGE EX-GWF-CSUB-P04 CONNECTED TO MODEL EX-GWF-CSUB-P04  PACKAGE CSUB             ON UNIT   1020 AT TIME STEP     19, STRESS PERIOD      3
 UBDSV06 SAVING  CSUB-INELASTIC  IN MODEL EX-GWF-CSUB-P04  PACKAGE EX-GWF-CSUB-P04 CONNECTED TO MODEL EX-GWF-CSUB-P04  PACKAGE CSUB             ON UNIT   1020 AT TIME STEP     19, STRESS PERIOD      3
 UBDSV1 SAVING  CSUB-WATERCOMP  ON UNIT   1020 AT TIME STEP     19, STRESS PERIOD      3
 UBDSV06 SAVING              WEL IN MODEL EX-GWF-CSUB-P04  PACKAGE EX-GWF-CSUB-P04 CONNECTED TO MODEL EX-GWF-CSUB-P04  PACKAGE WEL_0            ON UNIT   1020 AT TIME STEP     19, STRESS PERIOD      3
 UBDSV06 SAVING              RCH IN MODEL EX-GWF-CSUB-P04  PACKAGE EX-GWF-CSUB-P04 CONNECTED TO MODEL EX-GWF-CSUB-P04  PACKAGE RCH_0            ON UNIT   1020 AT TIME STEP     19, STRESS PERIOD      3
 UBDSV06 SAVING              CHD IN MODEL EX-GWF-CSUB-P04  PACKAGE EX-GWF-CSUB-P04 CONNECTED TO MODEL EX-GWF-CSUB-P04  PACKAGE CHD_0            ON UNIT   1020 AT TIME STEP     19, STRESS PERIOD      3

 HEAD WILL BE SAVED ON UNIT 1021 AT END OF TIME STEP   19, STRESS PERIOD    3


  VOLUME BUDGET FOR ENTIRE MODEL AT END OF TIME STEP   19, STRESS PERIOD   3
  ---------------------------------------------------------------------------------------------------

     CUMULATIVE VOLUME      L**3       RATES FOR THIS TIME STEP      L**3/T          PACKAGE NAME    
     ------------------                 ------------------------                     ----------------

           IN:                                      IN:
           ---                                      ---
              STO-SS =           0.0000                STO-SS =           0.0000     STORAGE                          
              STO-SY =  3259346440.2158                STO-SY =       12643.7739     STORAGE                          
      CSUB-CGELASTIC =     8331418.3271        CSUB-CGELASTIC =          88.7419     CSUB                             
        CSUB-ELASTIC =    22825743.1072          CSUB-ELASTIC =          84.5162     CSUB                             
      CSUB-INELASTIC =     6317392.7041        CSUB-INELASTIC =           0.0000     CSUB                             
      CSUB-WATERCOMP =    11652565.5252        CSUB-WATERCOMP =          42.4473     CSUB                             
                 WEL =           0.0000                   WEL =           0.0000     WEL_0                            
                 RCH =  1142648100.0000                   RCH =       39600.0000     RCH_0                            
                 CHD =           0.0000                   CHD =           0.0000     CHD_0                            

            TOTAL IN =  4451121659.8794              TOTAL IN =       52459.4793

          OUT:                                     OUT:
          ----                                     ----
              STO-SS =           0.0000                STO-SS =           0.0000     STORAGE                          
              STO-SY =   351526994.2049                STO-SY =       26926.1104     STORAGE                          
      CSUB-CGELASTIC =     8092456.3685        CSUB-CGELASTIC =          85.8631     CSUB                             
        CSUB-ELASTIC =     2248636.6746          CSUB-ELASTIC =         165.8307     CSUB                             
      CSUB-INELASTIC =           0.0000        CSUB-INELASTIC =           0.0000     CSUB                             
      CSUB-WATERCOMP =     1279512.5712        CSUB-WATERCOMP =          91.0537     CSUB                             
                 WEL =  3155760000.0000                   WEL =           0.0000     WEL_0                            
                 RCH =           0.0000                   RCH =           0.0000     RCH_0                            
                 CHD =   932214060.0548                   CHD =       25190.6214     CHD_0                            

           TOTAL OUT =  4451121659.8739             TOTAL OUT =       52459.4793

            IN - OUT =       5.4197E-03              IN - OUT =      -1.9136E-08

 PERCENT DISCREPANCY =           0.00     PERCENT DISCREPANCY =          -0.00




         TIME SUMMARY AT END OF TIME STEP   19 IN STRESS PERIOD    3
                    SECONDS     MINUTES      HOURS       DAYS        YEARS
                    -----------------------------------------------------------
   TIME STEP LENGTH 3.15576E+07 5.25960E+05  8766.0      365.25      1.0000    
 STRESS PERIOD TIME 5.99594E+08 9.99324E+06 1.66554E+05  6939.8      19.000    
         TOTAL TIME 2.49305E+09 4.15508E+07 6.92514E+05  28855.      79.000    


end timestep


start timestep kper="3" kstp="20" mode="normal"

 UBDSV1 SAVING           STO-SS ON UNIT   1020 AT TIME STEP     20, STRESS PERIOD      3
 UBDSV1 SAVING           STO-SY ON UNIT   1020 AT TIME STEP     20, STRESS PERIOD      3
 UBDSV1 SAVING     FLOW-JA-FACE ON UNIT   1020 AT TIME STEP     20, STRESS PERIOD      3
 UBDSV06 SAVING       DATA-SPDIS IN MODEL EX-GWF-CSUB-P04  PACKAGE NPF             CONNECTED TO MODEL EX-GWF-CSUB-P04  PACKAGE NPF              ON UNIT   1020 AT TIME STEP     20, STRESS PERIOD      3
 UBDSV1 SAVING  CSUB-CGELASTIC  ON UNIT   1020 AT TIME STEP     20, STRESS PERIOD      3
 UBDSV06 SAVING    CSUB-ELASTIC  IN MODEL EX-GWF-CSUB-P04  PACKAGE EX-GWF-CSUB-P04 CONNECTED TO MODEL EX-GWF-CSUB-P04  PACKAGE CSUB             ON UNIT   1020 AT TIME STEP     20, STRESS PERIOD      3
 UBDSV06 SAVING  CSUB-INELASTIC  IN MODEL EX-GWF-CSUB-P04  PACKAGE EX-GWF-CSUB-P04 CONNECTED TO MODEL EX-GWF-CSUB-P04  PACKAGE CSUB             ON UNIT   1020 AT TIME STEP     20, STRESS PERIOD      3
 UBDSV1 SAVING  CSUB-WATERCOMP  ON UNIT   1020 AT TIME STEP     20, STRESS PERIOD      3
 UBDSV06 SAVING              WEL IN MODEL EX-GWF-CSUB-P04  PACKAGE EX-GWF-CSUB-P04 CONNECTED TO MODEL EX-GWF-CSUB-P04  PACKAGE WEL_0            ON UNIT   1020 AT TIME STEP     20, STRESS PERIOD      3
 UBDSV06 SAVING              RCH IN MODEL EX-GWF-CSUB-P04  PACKAGE EX-GWF-CSUB-P04 CONNECTED TO MODEL EX-GWF-CSUB-P04  PACKAGE RCH_0            ON UNIT   1020 AT TIME STEP     20, STRESS PERIOD      3
 UBDSV06 SAVING              CHD IN MODEL EX-GWF-CSUB-P04  PACKAGE EX-GWF-CSUB-P04 CONNECTED TO MODEL EX-GWF-CSUB-P04  PACKAGE CHD_0            ON UNIT   1020 AT TIME STEP     20, STRESS PERIOD      3

 HEAD WILL BE SAVED ON UNIT 1021 AT END OF TIME STEP   20, STRESS PERIOD    3


  VOLUME BUDGET FOR ENTIRE MODEL AT END OF TIME STEP   20, STRESS PERIOD   3
  ---------------------------------------------------------------------------------------------------

     CUMULATIVE VOLUME      L**3       RATES FOR THIS TIME STEP      L**3/T          PACKAGE NAME    
     ------------------                 ------------------------                     ----------------

           IN:                                      IN:
           ---                                      ---
              STO-SS =           0.0000                STO-SS =           0.0000     STORAGE                          
              STO-SY =  3263577855.2959                STO-SY =       11584.9831     STORAGE                          
      CSUB-CGELASTIC =     8362161.3913        CSUB-CGELASTIC =          84.1699     CSUB                             
        CSUB-ELASTIC =    22854129.5965          CSUB-ELASTIC =          77.7180     CSUB                             
      CSUB-INELASTIC =     6317392.7041        CSUB-INELASTIC =           0.0000     CSUB                             
      CSUB-WATERCOMP =    11666800.8599        CSUB-WATERCOMP =          38.9742     CSUB                             
                 WEL =           0.0000                   WEL =           0.0000     WEL_0                            
                 RCH =  1157112000.0000                   RCH =       39600.0000     RCH_0                            
                 CHD =           0.0000                   CHD =           0.0000     CHD_0                            

            TOTAL IN =  4469890339.8478              TOTAL IN =       51385.8452

          OUT:                                     OUT:
          ----                                     ----
              STO-SS =           0.0000                STO-SS =           0.0000     STORAGE                          
              STO-SY =   360982856.3973                STO-SY =       25888.7397     STORAGE                          
      CSUB-CGELASTIC =     8122196.3000        CSUB-CGELASTIC =          81.4235     CSUB                             
        CSUB-ELASTIC =     2307048.1875          CSUB-ELASTIC =         159.9220     CSUB                             
      CSUB-INELASTIC =           0.0000        CSUB-INELASTIC =           0.0000     CSUB                             
      CSUB-WATERCOMP =     1311555.5079        CSUB-WATERCOMP =          87.7288     CSUB                             
                 WEL =  3155760000.0000                   WEL =           0.0000     WEL_0                            
                 RCH =           0.0000                   RCH =           0.0000     RCH_0                            
                 CHD =   941406683.4496                   CHD =       25168.0312     CHD_0                            

           TOTAL OUT =  4469890339.8423             TOTAL OUT =       51385.8452

            IN - OUT =       5.4522E-03              IN - OUT =       9.4304E-08

 PERCENT DISCREPANCY =           0.00     PERCENT DISCREPANCY =           0.00




         TIME SUMMARY AT END OF TIME STEP   20 IN STRESS PERIOD    3
                    SECONDS     MINUTES      HOURS       DAYS        YEARS
                    -----------------------------------------------------------
   TIME STEP LENGTH 3.15576E+07 5.25960E+05  8766.0      365.25      1.0000    
 STRESS PERIOD TIME 6.31152E+08 1.05192E+07 1.75320E+05  7305.0      20.000    
         TOTAL TIME 2.52461E+09 4.20768E+07 7.01280E+05  29220.      80.000    


end timestep


start timestep kper="3" kstp="21" mode="normal"

 UBDSV1 SAVING           STO-SS ON UNIT   1020 AT TIME STEP     21, STRESS PERIOD      3
 UBDSV1 SAVING           STO-SY ON UNIT   1020 AT TIME STEP     21, STRESS PERIOD      3
 UBDSV1 SAVING     FLOW-JA-FACE ON UNIT   1020 AT TIME STEP     21, STRESS PERIOD      3
 UBDSV06 SAVING       DATA-SPDIS IN MODEL EX-GWF-CSUB-P04  PACKAGE NPF             CONNECTED TO MODEL EX-GWF-CSUB-P04  PACKAGE NPF              ON UNIT   1020 AT TIME STEP     21, STRESS PERIOD      3
 UBDSV1 SAVING  CSUB-CGELASTIC  ON UNIT   1020 AT TIME STEP     21, STRESS PERIOD      3
 UBDSV06 SAVING    CSUB-ELASTIC  IN MODEL EX-GWF-CSUB-P04  PACKAGE EX-GWF-CSUB-P04 CONNECTED TO MODEL EX-GWF-CSUB-P04  PACKAGE CSUB             ON UNIT   1020 AT TIME STEP     21, STRESS PERIOD      3
 UBDSV06 SAVING  CSUB-INELASTIC  IN MODEL EX-GWF-CSUB-P04  PACKAGE EX-GWF-CSUB-P04 CONNECTED TO MODEL EX-GWF-CSUB-P04  PACKAGE CSUB             ON UNIT   1020 AT TIME STEP     21, STRESS PERIOD      3
 UBDSV1 SAVING  CSUB-WATERCOMP  ON UNIT   1020 AT TIME STEP     21, STRESS PERIOD      3
 UBDSV06 SAVING              WEL IN MODEL EX-GWF-CSUB-P04  PACKAGE EX-GWF-CSUB-P04 CONNECTED TO MODEL EX-GWF-CSUB-P04  PACKAGE WEL_0            ON UNIT   1020 AT TIME STEP     21, STRESS PERIOD      3
 UBDSV06 SAVING              RCH IN MODEL EX-GWF-CSUB-P04  PACKAGE EX-GWF-CSUB-P04 CONNECTED TO MODEL EX-GWF-CSUB-P04  PACKAGE RCH_0            ON UNIT   1020 AT TIME STEP     21, STRESS PERIOD      3
 UBDSV06 SAVING              CHD IN MODEL EX-GWF-CSUB-P04  PACKAGE EX-GWF-CSUB-P04 CONNECTED TO MODEL EX-GWF-CSUB-P04  PACKAGE CHD_0            ON UNIT   1020 AT TIME STEP     21, STRESS PERIOD      3

 HEAD WILL BE SAVED ON UNIT 1021 AT END OF TIME STEP   21, STRESS PERIOD    3


  VOLUME BUDGET FOR ENTIRE MODEL AT END OF TIME STEP   21, STRESS PERIOD   3
  ---------------------------------------------------------------------------------------------------

     CUMULATIVE VOLUME      L**3       RATES FOR THIS TIME STEP      L**3/T          PACKAGE NAME    
     ------------------                 ------------------------                     ----------------

           IN:                                      IN:
           ---                                      ---
              STO-SS =           0.0000                STO-SS =           0.0000     STORAGE                          
              STO-SY =  3267457529.5261                STO-SY =       10621.9691     STORAGE                          
      CSUB-CGELASTIC =     8391389.7307        CSUB-CGELASTIC =          80.0228     CSUB                             
        CSUB-ELASTIC =    22880265.5332          CSUB-ELASTIC =          71.5563     CSUB                             
      CSUB-INELASTIC =     6317392.7041        CSUB-INELASTIC =           0.0000     CSUB                             
      CSUB-WATERCOMP =    11679889.7037        CSUB-WATERCOMP =          35.8353     CSUB                             
                 WEL =           0.0000                   WEL =           0.0000     WEL_0                            
                 RCH =  1171575900.0000                   RCH =       39600.0000     RCH_0                            
                 CHD =           0.0000                   CHD =           0.0000     CHD_0                            

            TOTAL IN =  4488302367.1978              TOTAL IN =       50409.3836

          OUT:                                     OUT:
          ----                                     ----
              STO-SS =           0.0000                STO-SS =           0.0000     STORAGE                          
              STO-SY =   370092726.1565                STO-SY =       24941.4641     STORAGE                          
      CSUB-CGELASTIC =     8150464.8390        CSUB-CGELASTIC =          77.3950     CSUB                             
        CSUB-ELASTIC =     2363492.1453          CSUB-ELASTIC =         154.5351     CSUB                             
      CSUB-INELASTIC =           0.0000        CSUB-INELASTIC =           0.0000     CSUB                             
      CSUB-WATERCOMP =     1342495.8851        CSUB-WATERCOMP =          84.7101     CSUB                             
                 WEL =  3155760000.0000                   WEL =           0.0000     WEL_0                            
                 RCH =           0.0000                   RCH =           0.0000     RCH_0                            
                 CHD =   950593188.1664                   CHD =       25151.2792     CHD_0                            

           TOTAL OUT =  4488302367.1924             TOTAL OUT =       50409.3836

            IN - OUT =       5.4712E-03              IN - OUT =       4.9411E-08

 PERCENT DISCREPANCY =           0.00     PERCENT DISCREPANCY =           0.00




         TIME SUMMARY AT END OF TIME STEP   21 IN STRESS PERIOD    3
                    SECONDS     MINUTES      HOURS       DAYS        YEARS
                    -----------------------------------------------------------
   TIME STEP LENGTH 3.15576E+07 5.25960E+05  8766.0      365.25      1.0000    
 STRESS PERIOD TIME 6.62710E+08 1.10452E+07 1.84086E+05  7670.2      21.000    
         TOTAL TIME 2.55617E+09 4.26028E+07 7.10046E+05  29585.      81.000    


end timestep


start timestep kper="3" kstp="22" mode="normal"

 UBDSV1 SAVING           STO-SS ON UNIT   1020 AT TIME STEP     22, STRESS PERIOD      3
 UBDSV1 SAVING           STO-SY ON UNIT   1020 AT TIME STEP     22, STRESS PERIOD      3
 UBDSV1 SAVING     FLOW-JA-FACE ON UNIT   1020 AT TIME STEP     22, STRESS PERIOD      3
 UBDSV06 SAVING       DATA-SPDIS IN MODEL EX-GWF-CSUB-P04  PACKAGE NPF             CONNECTED TO MODEL EX-GWF-CSUB-P04  PACKAGE NPF              ON UNIT   1020 AT TIME STEP     22, STRESS PERIOD      3
 UBDSV1 SAVING  CSUB-CGELASTIC  ON UNIT   1020 AT TIME STEP     22, STRESS PERIOD      3
 UBDSV06 SAVING    CSUB-ELASTIC  IN MODEL EX-GWF-CSUB-P04  PACKAGE EX-GWF-CSUB-P04 CONNECTED TO MODEL EX-GWF-CSUB-P04  PACKAGE CSUB             ON UNIT   1020 AT TIME STEP     22, STRESS PERIOD      3
 UBDSV06 SAVING  CSUB-INELASTIC  IN MODEL EX-GWF-CSUB-P04  PACKAGE EX-GWF-CSUB-P04 CONNECTED TO MODEL EX-GWF-CSUB-P04  PACKAGE CSUB             ON UNIT   1020 AT TIME STEP     22, STRESS PERIOD      3
 UBDSV1 SAVING  CSUB-WATERCOMP  ON UNIT   1020 AT TIME STEP     22, STRESS PERIOD      3
 UBDSV06 SAVING              WEL IN MODEL EX-GWF-CSUB-P04  PACKAGE EX-GWF-CSUB-P04 CONNECTED TO MODEL EX-GWF-CSUB-P04  PACKAGE WEL_0            ON UNIT   1020 AT TIME STEP     22, STRESS PERIOD      3
 UBDSV06 SAVING              RCH IN MODEL EX-GWF-CSUB-P04  PACKAGE EX-GWF-CSUB-P04 CONNECTED TO MODEL EX-GWF-CSUB-P04  PACKAGE RCH_0            ON UNIT   1020 AT TIME STEP     22, STRESS PERIOD      3
 UBDSV06 SAVING              CHD IN MODEL EX-GWF-CSUB-P04  PACKAGE EX-GWF-CSUB-P04 CONNECTED TO MODEL EX-GWF-CSUB-P04  PACKAGE CHD_0            ON UNIT   1020 AT TIME STEP     22, STRESS PERIOD      3

 HEAD WILL BE SAVED ON UNIT 1021 AT END OF TIME STEP   22, STRESS PERIOD    3


  VOLUME BUDGET FOR ENTIRE MODEL AT END OF TIME STEP   22, STRESS PERIOD   3
  ---------------------------------------------------------------------------------------------------

     CUMULATIVE VOLUME      L**3       RATES FOR THIS TIME STEP      L**3/T          PACKAGE NAME    
     ------------------                 ------------------------                     ----------------

           IN:                                      IN:
           ---                                      ---
              STO-SS =           0.0000                STO-SS =           0.0000     STORAGE                          
              STO-SY =  3271026021.2758                STO-SY =        9769.9979     STORAGE                          
      CSUB-CGELASTIC =     8419274.0759        CSUB-CGELASTIC =          76.3432     CSUB                             
        CSUB-ELASTIC =    22904399.7550          CSUB-ELASTIC =          66.0759     CSUB                             
      CSUB-INELASTIC =     6317392.7041        CSUB-INELASTIC =           0.0000     CSUB                             
      CSUB-WATERCOMP =    11691961.3380        CSUB-WATERCOMP =          33.0503     CSUB                             
                 WEL =           0.0000                   WEL =           0.0000     WEL_0                            
                 RCH =  1186039800.0000                   RCH =       39600.0000     RCH_0                            
                 CHD =           0.0000                   CHD =           0.0000     CHD_0                            

            TOTAL IN =  4506398849.1487              TOTAL IN =       49545.4674

          OUT:                                     OUT:
          ----                                     ----
              STO-SS =           0.0000                STO-SS =           0.0000     STORAGE                          
              STO-SY =   378895245.5111                STO-SY =       24099.9845     STORAGE                          
      CSUB-CGELASTIC =     8177428.4898        CSUB-CGELASTIC =          73.8225     CSUB                             
        CSUB-ELASTIC =     2418180.6351          CSUB-ELASTIC =         149.7289     CSUB                             
      CSUB-INELASTIC =           0.0000        CSUB-INELASTIC =           0.0000     CSUB                             
      CSUB-WATERCOMP =     1372453.8347        CSUB-WATERCOMP =          82.0204     CSUB                             
                 WEL =  3155760000.0000                   WEL =           0.0000     WEL_0                            
                 RCH =           0.0000                   RCH =           0.0000     RCH_0                            
                 CHD =   959775540.6727                   CHD =       25139.9110     CHD_0                            

           TOTAL OUT =  4506398849.1432             TOTAL OUT =       49545.4674

            IN - OUT =       5.5084E-03              IN - OUT =       1.0445E-07

 PERCENT DISCREPANCY =           0.00     PERCENT DISCREPANCY =           0.00




         TIME SUMMARY AT END OF TIME STEP   22 IN STRESS PERIOD    3
                    SECONDS     MINUTES      HOURS       DAYS        YEARS
                    -----------------------------------------------------------
   TIME STEP LENGTH 3.15576E+07 5.25960E+05  8766.0      365.25      1.0000    
 STRESS PERIOD TIME 6.94267E+08 1.15711E+07 1.92852E+05  8035.5      22.000    
         TOTAL TIME 2.58772E+09 4.31287E+07 7.18812E+05  29950.      82.000    


end timestep


start timestep kper="3" kstp="23" mode="normal"

 UBDSV1 SAVING           STO-SS ON UNIT   1020 AT TIME STEP     23, STRESS PERIOD      3
 UBDSV1 SAVING           STO-SY ON UNIT   1020 AT TIME STEP     23, STRESS PERIOD      3
 UBDSV1 SAVING     FLOW-JA-FACE ON UNIT   1020 AT TIME STEP     23, STRESS PERIOD      3
 UBDSV06 SAVING       DATA-SPDIS IN MODEL EX-GWF-CSUB-P04  PACKAGE NPF             CONNECTED TO MODEL EX-GWF-CSUB-P04  PACKAGE NPF              ON UNIT   1020 AT TIME STEP     23, STRESS PERIOD      3
 UBDSV1 SAVING  CSUB-CGELASTIC  ON UNIT   1020 AT TIME STEP     23, STRESS PERIOD      3
 UBDSV06 SAVING    CSUB-ELASTIC  IN MODEL EX-GWF-CSUB-P04  PACKAGE EX-GWF-CSUB-P04 CONNECTED TO MODEL EX-GWF-CSUB-P04  PACKAGE CSUB             ON UNIT   1020 AT TIME STEP     23, STRESS PERIOD      3
 UBDSV06 SAVING  CSUB-INELASTIC  IN MODEL EX-GWF-CSUB-P04  PACKAGE EX-GWF-CSUB-P04 CONNECTED TO MODEL EX-GWF-CSUB-P04  PACKAGE CSUB             ON UNIT   1020 AT TIME STEP     23, STRESS PERIOD      3
 UBDSV1 SAVING  CSUB-WATERCOMP  ON UNIT   1020 AT TIME STEP     23, STRESS PERIOD      3
 UBDSV06 SAVING              WEL IN MODEL EX-GWF-CSUB-P04  PACKAGE EX-GWF-CSUB-P04 CONNECTED TO MODEL EX-GWF-CSUB-P04  PACKAGE WEL_0            ON UNIT   1020 AT TIME STEP     23, STRESS PERIOD      3
 UBDSV06 SAVING              RCH IN MODEL EX-GWF-CSUB-P04  PACKAGE EX-GWF-CSUB-P04 CONNECTED TO MODEL EX-GWF-CSUB-P04  PACKAGE RCH_0            ON UNIT   1020 AT TIME STEP     23, STRESS PERIOD      3
 UBDSV06 SAVING              CHD IN MODEL EX-GWF-CSUB-P04  PACKAGE EX-GWF-CSUB-P04 CONNECTED TO MODEL EX-GWF-CSUB-P04  PACKAGE CHD_0            ON UNIT   1020 AT TIME STEP     23, STRESS PERIOD      3

 HEAD WILL BE SAVED ON UNIT 1021 AT END OF TIME STEP   23, STRESS PERIOD    3


  VOLUME BUDGET FOR ENTIRE MODEL AT END OF TIME STEP   23, STRESS PERIOD   3
  ---------------------------------------------------------------------------------------------------

     CUMULATIVE VOLUME      L**3       RATES FOR THIS TIME STEP      L**3/T          PACKAGE NAME    
     ------------------                 ------------------------                     ----------------

           IN:                                      IN:
           ---                                      ---
              STO-SS =           0.0000                STO-SS =           0.0000     STORAGE                          
              STO-SY =  3274315157.9795                STO-SY =        9005.1655     STORAGE                          
      CSUB-CGELASTIC =     8445949.7241        CSUB-CGELASTIC =          73.0339     CSUB                             
        CSUB-ELASTIC =    22926731.2762          CSUB-ELASTIC =          61.1404     CSUB                             
      CSUB-INELASTIC =     6317392.7041        CSUB-INELASTIC =           0.0000     CSUB                             
      CSUB-WATERCOMP =    11703122.6115        CSUB-WATERCOMP =          30.5579     CSUB                             
                 WEL =           0.0000                   WEL =           0.0000     WEL_0                            
                 RCH =  1200503700.0000                   RCH =       39600.0000     RCH_0                            
                 CHD =           0.0000                   CHD =           0.0000     CHD_0                            

            TOTAL IN =  4524212054.2954              TOTAL IN =       48769.8977

          OUT:                                     OUT:
          ----                                     ----
              STO-SS =           0.0000                STO-SS =           0.0000     STORAGE                          
              STO-SY =   387420475.2071                STO-SY =       23340.8068     STORAGE                          
      CSUB-CGELASTIC =     8203218.9563        CSUB-CGELASTIC =          70.6104     CSUB                             
        CSUB-ELASTIC =     2471280.3326          CSUB-ELASTIC =         145.3790     CSUB                             
      CSUB-INELASTIC =           0.0000        CSUB-INELASTIC =           0.0000     CSUB                             
      CSUB-WATERCOMP =     1401527.9717        CSUB-WATERCOMP =          79.6006     CSUB                             
                 WEL =  3155760000.0000                   WEL =           0.0000     WEL_0                            
                 RCH =           0.0000                   RCH =           0.0000     RCH_0                            
                 CHD =   968955551.8222                   CHD =       25133.5008     CHD_0                            

           TOTAL OUT =  4524212054.2899             TOTAL OUT =       48769.8977

            IN - OUT =       5.5180E-03              IN - OUT =       2.2810E-08

 PERCENT DISCREPANCY =           0.00     PERCENT DISCREPANCY =           0.00




         TIME SUMMARY AT END OF TIME STEP   23 IN STRESS PERIOD    3
                    SECONDS     MINUTES      HOURS       DAYS        YEARS
                    -----------------------------------------------------------
   TIME STEP LENGTH 3.15576E+07 5.25960E+05  8766.0      365.25      1.0000    
 STRESS PERIOD TIME 7.25825E+08 1.20971E+07 2.01618E+05  8400.8      23.000    
         TOTAL TIME 2.61928E+09 4.36547E+07 7.27578E+05  30316.      83.000    


end timestep


start timestep kper="3" kstp="24" mode="normal"

 UBDSV1 SAVING           STO-SS ON UNIT   1020 AT TIME STEP     24, STRESS PERIOD      3
 UBDSV1 SAVING           STO-SY ON UNIT   1020 AT TIME STEP     24, STRESS PERIOD      3
 UBDSV1 SAVING     FLOW-JA-FACE ON UNIT   1020 AT TIME STEP     24, STRESS PERIOD      3
 UBDSV06 SAVING       DATA-SPDIS IN MODEL EX-GWF-CSUB-P04  PACKAGE NPF             CONNECTED TO MODEL EX-GWF-CSUB-P04  PACKAGE NPF              ON UNIT   1020 AT TIME STEP     24, STRESS PERIOD      3
 UBDSV1 SAVING  CSUB-CGELASTIC  ON UNIT   1020 AT TIME STEP     24, STRESS PERIOD      3
 UBDSV06 SAVING    CSUB-ELASTIC  IN MODEL EX-GWF-CSUB-P04  PACKAGE EX-GWF-CSUB-P04 CONNECTED TO MODEL EX-GWF-CSUB-P04  PACKAGE CSUB             ON UNIT   1020 AT TIME STEP     24, STRESS PERIOD      3
 UBDSV06 SAVING  CSUB-INELASTIC  IN MODEL EX-GWF-CSUB-P04  PACKAGE EX-GWF-CSUB-P04 CONNECTED TO MODEL EX-GWF-CSUB-P04  PACKAGE CSUB             ON UNIT   1020 AT TIME STEP     24, STRESS PERIOD      3
 UBDSV1 SAVING  CSUB-WATERCOMP  ON UNIT   1020 AT TIME STEP     24, STRESS PERIOD      3
 UBDSV06 SAVING              WEL IN MODEL EX-GWF-CSUB-P04  PACKAGE EX-GWF-CSUB-P04 CONNECTED TO MODEL EX-GWF-CSUB-P04  PACKAGE WEL_0            ON UNIT   1020 AT TIME STEP     24, STRESS PERIOD      3
 UBDSV06 SAVING              RCH IN MODEL EX-GWF-CSUB-P04  PACKAGE EX-GWF-CSUB-P04 CONNECTED TO MODEL EX-GWF-CSUB-P04  PACKAGE RCH_0            ON UNIT   1020 AT TIME STEP     24, STRESS PERIOD      3
 UBDSV06 SAVING              CHD IN MODEL EX-GWF-CSUB-P04  PACKAGE EX-GWF-CSUB-P04 CONNECTED TO MODEL EX-GWF-CSUB-P04  PACKAGE CHD_0            ON UNIT   1020 AT TIME STEP     24, STRESS PERIOD      3

 HEAD WILL BE SAVED ON UNIT 1021 AT END OF TIME STEP   24, STRESS PERIOD    3


  VOLUME BUDGET FOR ENTIRE MODEL AT END OF TIME STEP   24, STRESS PERIOD   3
  ---------------------------------------------------------------------------------------------------

     CUMULATIVE VOLUME      L**3       RATES FOR THIS TIME STEP      L**3/T          PACKAGE NAME    
     ------------------                 ------------------------                     ----------------

           IN:                                      IN:
           ---                                      ---
              STO-SS =           0.0000                STO-SS =           0.0000     STORAGE                          
              STO-SY =  3277357738.9328                STO-SY =        8330.1327     STORAGE                          
      CSUB-CGELASTIC =     8471555.0997        CSUB-CGELASTIC =          70.1037     CSUB                             
        CSUB-ELASTIC =    22947461.3126          CSUB-ELASTIC =          56.7557     CSUB                             
      CSUB-INELASTIC =     6317392.7041        CSUB-INELASTIC =           0.0000     CSUB                             
      CSUB-WATERCOMP =    11713474.5717        CSUB-WATERCOMP =          28.3421     CSUB                             
                 WEL =           0.0000                   WEL =           0.0000     WEL_0                            
                 RCH =  1214967600.0000                   RCH =       39600.0000     RCH_0                            
                 CHD =           0.0000                   CHD =           0.0000     CHD_0                            

            TOTAL IN =  4541775222.6208              TOTAL IN =       48085.3342

          OUT:                                     OUT:
          ----                                     ----
              STO-SS =           0.0000                STO-SS =           0.0000     STORAGE                          
              STO-SY =   395699588.2762                STO-SY =       22666.9762     STORAGE                          
      CSUB-CGELASTIC =     8227971.5950        CSUB-CGELASTIC =          67.7690     CSUB                             
        CSUB-ELASTIC =     2522963.9056          CSUB-ELASTIC =         141.5019     CSUB                             
      CSUB-INELASTIC =           0.0000        CSUB-INELASTIC =           0.0000     CSUB                             
      CSUB-WATERCOMP =     1429811.9240        CSUB-WATERCOMP =          77.4372     CSUB                             
                 WEL =  3155760000.0000                   WEL =           0.0000     WEL_0                            
                 RCH =           0.0000                   RCH =           0.0000     RCH_0                            
                 CHD =   978134886.9145                   CHD =       25131.6498     CHD_0                            

           TOTAL OUT =  4541775222.6152             TOTAL OUT =       48085.3342

            IN - OUT =       5.5428E-03              IN - OUT =       6.8903E-08

 PERCENT DISCREPANCY =           0.00     PERCENT DISCREPANCY =           0.00




         TIME SUMMARY AT END OF TIME STEP   24 IN STRESS PERIOD    3
                    SECONDS     MINUTES      HOURS       DAYS        YEARS
                    -----------------------------------------------------------
   TIME STEP LENGTH 3.15576E+07 5.25960E+05  8766.0      365.25      1.0000    
 STRESS PERIOD TIME 7.57382E+08 1.26230E+07 2.10384E+05  8766.0      24.000    
         TOTAL TIME 2.65084E+09 4.41806E+07 7.36344E+05  30681.      84.000    


end timestep


start timestep kper="3" kstp="25" mode="normal"

 UBDSV1 SAVING           STO-SS ON UNIT   1020 AT TIME STEP     25, STRESS PERIOD      3
 UBDSV1 SAVING           STO-SY ON UNIT   1020 AT TIME STEP     25, STRESS PERIOD      3
 UBDSV1 SAVING     FLOW-JA-FACE ON UNIT   1020 AT TIME STEP     25, STRESS PERIOD      3
 UBDSV06 SAVING       DATA-SPDIS IN MODEL EX-GWF-CSUB-P04  PACKAGE NPF             CONNECTED TO MODEL EX-GWF-CSUB-P04  PACKAGE NPF              ON UNIT   1020 AT TIME STEP     25, STRESS PERIOD      3
 UBDSV1 SAVING  CSUB-CGELASTIC  ON UNIT   1020 AT TIME STEP     25, STRESS PERIOD      3
 UBDSV06 SAVING    CSUB-ELASTIC  IN MODEL EX-GWF-CSUB-P04  PACKAGE EX-GWF-CSUB-P04 CONNECTED TO MODEL EX-GWF-CSUB-P04  PACKAGE CSUB             ON UNIT   1020 AT TIME STEP     25, STRESS PERIOD      3
 UBDSV06 SAVING  CSUB-INELASTIC  IN MODEL EX-GWF-CSUB-P04  PACKAGE EX-GWF-CSUB-P04 CONNECTED TO MODEL EX-GWF-CSUB-P04  PACKAGE CSUB             ON UNIT   1020 AT TIME STEP     25, STRESS PERIOD      3
 UBDSV1 SAVING  CSUB-WATERCOMP  ON UNIT   1020 AT TIME STEP     25, STRESS PERIOD      3
 UBDSV06 SAVING              WEL IN MODEL EX-GWF-CSUB-P04  PACKAGE EX-GWF-CSUB-P04 CONNECTED TO MODEL EX-GWF-CSUB-P04  PACKAGE WEL_0            ON UNIT   1020 AT TIME STEP     25, STRESS PERIOD      3
 UBDSV06 SAVING              RCH IN MODEL EX-GWF-CSUB-P04  PACKAGE EX-GWF-CSUB-P04 CONNECTED TO MODEL EX-GWF-CSUB-P04  PACKAGE RCH_0            ON UNIT   1020 AT TIME STEP     25, STRESS PERIOD      3
 UBDSV06 SAVING              CHD IN MODEL EX-GWF-CSUB-P04  PACKAGE EX-GWF-CSUB-P04 CONNECTED TO MODEL EX-GWF-CSUB-P04  PACKAGE CHD_0            ON UNIT   1020 AT TIME STEP     25, STRESS PERIOD      3

 HEAD WILL BE SAVED ON UNIT 1021 AT END OF TIME STEP   25, STRESS PERIOD    3


  VOLUME BUDGET FOR ENTIRE MODEL AT END OF TIME STEP   25, STRESS PERIOD   3
  ---------------------------------------------------------------------------------------------------

     CUMULATIVE VOLUME      L**3       RATES FOR THIS TIME STEP      L**3/T          PACKAGE NAME    
     ------------------                 ------------------------                     ----------------

           IN:                                      IN:
           ---                                      ---
              STO-SS =           0.0000                STO-SS =           0.0000     STORAGE                          
              STO-SY =  3280180686.5032                STO-SY =        7728.8092     STORAGE                          
      CSUB-CGELASTIC =     8496206.5732        CSUB-CGELASTIC =          67.4921     CSUB                             
        CSUB-ELASTIC =    22966758.4766          CSUB-ELASTIC =          52.8328     CSUB                             
      CSUB-INELASTIC =     6317392.7041        CSUB-INELASTIC =           0.0000     CSUB                             
      CSUB-WATERCOMP =    11723106.1273        CSUB-WATERCOMP =          26.3698     CSUB                             
                 WEL =           0.0000                   WEL =           0.0000     WEL_0                            
                 RCH =  1229431500.0000                   RCH =       39600.0000     RCH_0                            
                 CHD =           0.0000                   CHD =           0.0000     CHD_0                            

            TOTAL IN =  4559115650.3843              TOTAL IN =       47475.5038

          OUT:                                     OUT:
          ----                                     ----
              STO-SS =           0.0000                STO-SS =           0.0000     STORAGE                          
              STO-SY =   403758012.2291                STO-SY =       22062.7624     STORAGE                          
      CSUB-CGELASTIC =     8251800.1454        CSUB-CGELASTIC =          65.2390     CSUB                             
        CSUB-ELASTIC =     2573374.6895          CSUB-ELASTIC =         138.0172     CSUB                             
      CSUB-INELASTIC =           0.0000        CSUB-INELASTIC =           0.0000     CSUB                             
      CSUB-WATERCOMP =     1457387.9054        CSUB-WATERCOMP =          75.4989     CSUB                             
                 WEL =  3155760000.0000                   WEL =           0.0000     WEL_0                            
                 RCH =           0.0000                   RCH =           0.0000     RCH_0                            
                 CHD =   987315075.4093                   CHD =       25133.9863     CHD_0                            

           TOTAL OUT =  4559115650.3787             TOTAL OUT =       47475.5038

            IN - OUT =       5.5809E-03              IN - OUT =       1.0664E-07

 PERCENT DISCREPANCY =           0.00     PERCENT DISCREPANCY =           0.00




         TIME SUMMARY AT END OF TIME STEP   25 IN STRESS PERIOD    3
                    SECONDS     MINUTES      HOURS       DAYS        YEARS
                    -----------------------------------------------------------
   TIME STEP LENGTH 3.15576E+07 5.25960E+05  8766.0      365.25      1.0000    
 STRESS PERIOD TIME 7.88940E+08 1.31490E+07 2.19150E+05  9131.2      25.000    
         TOTAL TIME 2.68240E+09 4.47066E+07 7.45110E+05  31046.      85.000    


end timestep


start timestep kper="3" kstp="26" mode="normal"

 UBDSV1 SAVING           STO-SS ON UNIT   1020 AT TIME STEP     26, STRESS PERIOD      3
 UBDSV1 SAVING           STO-SY ON UNIT   1020 AT TIME STEP     26, STRESS PERIOD      3
 UBDSV1 SAVING     FLOW-JA-FACE ON UNIT   1020 AT TIME STEP     26, STRESS PERIOD      3
 UBDSV06 SAVING       DATA-SPDIS IN MODEL EX-GWF-CSUB-P04  PACKAGE NPF             CONNECTED TO MODEL EX-GWF-CSUB-P04  PACKAGE NPF              ON UNIT   1020 AT TIME STEP     26, STRESS PERIOD      3
 UBDSV1 SAVING  CSUB-CGELASTIC  ON UNIT   1020 AT TIME STEP     26, STRESS PERIOD      3
 UBDSV06 SAVING    CSUB-ELASTIC  IN MODEL EX-GWF-CSUB-P04  PACKAGE EX-GWF-CSUB-P04 CONNECTED TO MODEL EX-GWF-CSUB-P04  PACKAGE CSUB             ON UNIT   1020 AT TIME STEP     26, STRESS PERIOD      3
 UBDSV06 SAVING  CSUB-INELASTIC  IN MODEL EX-GWF-CSUB-P04  PACKAGE EX-GWF-CSUB-P04 CONNECTED TO MODEL EX-GWF-CSUB-P04  PACKAGE CSUB             ON UNIT   1020 AT TIME STEP     26, STRESS PERIOD      3
 UBDSV1 SAVING  CSUB-WATERCOMP  ON UNIT   1020 AT TIME STEP     26, STRESS PERIOD      3
 UBDSV06 SAVING              WEL IN MODEL EX-GWF-CSUB-P04  PACKAGE EX-GWF-CSUB-P04 CONNECTED TO MODEL EX-GWF-CSUB-P04  PACKAGE WEL_0            ON UNIT   1020 AT TIME STEP     26, STRESS PERIOD      3
 UBDSV06 SAVING              RCH IN MODEL EX-GWF-CSUB-P04  PACKAGE EX-GWF-CSUB-P04 CONNECTED TO MODEL EX-GWF-CSUB-P04  PACKAGE RCH_0            ON UNIT   1020 AT TIME STEP     26, STRESS PERIOD      3
 UBDSV06 SAVING              CHD IN MODEL EX-GWF-CSUB-P04  PACKAGE EX-GWF-CSUB-P04 CONNECTED TO MODEL EX-GWF-CSUB-P04  PACKAGE CHD_0            ON UNIT   1020 AT TIME STEP     26, STRESS PERIOD      3

 HEAD WILL BE SAVED ON UNIT 1021 AT END OF TIME STEP   26, STRESS PERIOD    3


  VOLUME BUDGET FOR ENTIRE MODEL AT END OF TIME STEP   26, STRESS PERIOD   3
  ---------------------------------------------------------------------------------------------------

     CUMULATIVE VOLUME      L**3       RATES FOR THIS TIME STEP      L**3/T          PACKAGE NAME    
     ------------------                 ------------------------                     ----------------

           IN:                                      IN:
           ---                                      ---
              STO-SS =           0.0000                STO-SS =           0.0000     STORAGE                          
              STO-SY =  3282807135.1055                STO-SY =        7190.8244     STORAGE                          
      CSUB-CGELASTIC =     8520000.4910        CSUB-CGELASTIC =          65.1442     CSUB                             
        CSUB-ELASTIC =    22984769.9586          CSUB-ELASTIC =          49.3128     CSUB                             
      CSUB-INELASTIC =     6317392.7041        CSUB-INELASTIC =           0.0000     CSUB                             
      CSUB-WATERCOMP =    11732096.7863        CSUB-WATERCOMP =          24.6151     CSUB                             
                 WEL =           0.0000                   WEL =           0.0000     WEL_0                            
                 RCH =  1243895400.0000                   RCH =       39600.0000     RCH_0                            
                 CHD =           0.0000                   CHD =           0.0000     CHD_0                            

            TOTAL IN =  4576256795.0456              TOTAL IN =       46929.8964

          OUT:                                     OUT:
          ----                                     ----
              STO-SS =           0.0000                STO-SS =           0.0000     STORAGE                          
              STO-SY =   411617509.3178                STO-SY =       21518.1303     STORAGE                          
      CSUB-CGELASTIC =     8274798.6875        CSUB-CGELASTIC =          62.9666     CSUB                             
        CSUB-ELASTIC =     2622637.4287          CSUB-ELASTIC =         134.8740     CSUB                             
      CSUB-INELASTIC =           0.0000        CSUB-INELASTIC =           0.0000     CSUB                             
      CSUB-WATERCOMP =     1484329.3776        CSUB-WATERCOMP =          73.7617     CSUB                             
                 WEL =  3155760000.0000                   WEL =           0.0000     WEL_0                            
                 RCH =           0.0000                   RCH =           0.0000     RCH_0                            
                 CHD =   996497520.2284                   CHD =       25140.1638     CHD_0                            

           TOTAL OUT =  4576256795.0400             TOTAL OUT =       46929.8964

            IN - OUT =       5.5923E-03              IN - OUT =       3.1105E-08

 PERCENT DISCREPANCY =           0.00     PERCENT DISCREPANCY =           0.00




         TIME SUMMARY AT END OF TIME STEP   26 IN STRESS PERIOD    3
                    SECONDS     MINUTES      HOURS       DAYS        YEARS
                    -----------------------------------------------------------
   TIME STEP LENGTH 3.15576E+07 5.25960E+05  8766.0      365.25      1.0000    
 STRESS PERIOD TIME 8.20498E+08 1.36750E+07 2.27916E+05  9496.5      26.000    
         TOTAL TIME 2.71395E+09 4.52326E+07 7.53876E+05  31412.      86.000    


end timestep


start timestep kper="3" kstp="27" mode="normal"

 UBDSV1 SAVING           STO-SS ON UNIT   1020 AT TIME STEP     27, STRESS PERIOD      3
 UBDSV1 SAVING           STO-SY ON UNIT   1020 AT TIME STEP     27, STRESS PERIOD      3
 UBDSV1 SAVING     FLOW-JA-FACE ON UNIT   1020 AT TIME STEP     27, STRESS PERIOD      3
 UBDSV06 SAVING       DATA-SPDIS IN MODEL EX-GWF-CSUB-P04  PACKAGE NPF             CONNECTED TO MODEL EX-GWF-CSUB-P04  PACKAGE NPF              ON UNIT   1020 AT TIME STEP     27, STRESS PERIOD      3
 UBDSV1 SAVING  CSUB-CGELASTIC  ON UNIT   1020 AT TIME STEP     27, STRESS PERIOD      3
 UBDSV06 SAVING    CSUB-ELASTIC  IN MODEL EX-GWF-CSUB-P04  PACKAGE EX-GWF-CSUB-P04 CONNECTED TO MODEL EX-GWF-CSUB-P04  PACKAGE CSUB             ON UNIT   1020 AT TIME STEP     27, STRESS PERIOD      3
 UBDSV06 SAVING  CSUB-INELASTIC  IN MODEL EX-GWF-CSUB-P04  PACKAGE EX-GWF-CSUB-P04 CONNECTED TO MODEL EX-GWF-CSUB-P04  PACKAGE CSUB             ON UNIT   1020 AT TIME STEP     27, STRESS PERIOD      3
 UBDSV1 SAVING  CSUB-WATERCOMP  ON UNIT   1020 AT TIME STEP     27, STRESS PERIOD      3
 UBDSV06 SAVING              WEL IN MODEL EX-GWF-CSUB-P04  PACKAGE EX-GWF-CSUB-P04 CONNECTED TO MODEL EX-GWF-CSUB-P04  PACKAGE WEL_0            ON UNIT   1020 AT TIME STEP     27, STRESS PERIOD      3
 UBDSV06 SAVING              RCH IN MODEL EX-GWF-CSUB-P04  PACKAGE EX-GWF-CSUB-P04 CONNECTED TO MODEL EX-GWF-CSUB-P04  PACKAGE RCH_0            ON UNIT   1020 AT TIME STEP     27, STRESS PERIOD      3
 UBDSV06 SAVING              CHD IN MODEL EX-GWF-CSUB-P04  PACKAGE EX-GWF-CSUB-P04 CONNECTED TO MODEL EX-GWF-CSUB-P04  PACKAGE CHD_0            ON UNIT   1020 AT TIME STEP     27, STRESS PERIOD      3

 HEAD WILL BE SAVED ON UNIT 1021 AT END OF TIME STEP   27, STRESS PERIOD    3


  VOLUME BUDGET FOR ENTIRE MODEL AT END OF TIME STEP   27, STRESS PERIOD   3
  ---------------------------------------------------------------------------------------------------

     CUMULATIVE VOLUME      L**3       RATES FOR THIS TIME STEP      L**3/T          PACKAGE NAME    
     ------------------                 ------------------------                     ----------------

           IN:                                      IN:
           ---                                      ---
              STO-SS =           0.0000                STO-SS =           0.0000     STORAGE                          
              STO-SY =  3285259795.5049                STO-SY =        6715.0182     STORAGE                          
      CSUB-CGELASTIC =     8543026.6449        CSUB-CGELASTIC =          63.0422     CSUB                             
        CSUB-ELASTIC =    23001628.3101          CSUB-ELASTIC =          46.1557     CSUB                             
      CSUB-INELASTIC =     6317392.7041        CSUB-INELASTIC =           0.0000     CSUB                             
      CSUB-WATERCOMP =    11740517.2435        CSUB-WATERCOMP =          23.0540     CSUB                             
                 WEL =           0.0000                   WEL =           0.0000     WEL_0                            
                 RCH =  1258359300.0000                   RCH =       39600.0000     RCH_0                            
                 CHD =           0.0000                   CHD =           0.0000     CHD_0                            

            TOTAL IN =  4593221660.4076              TOTAL IN =       46447.2700

          OUT:                                     OUT:
          ----                                     ----
              STO-SS =           0.0000                STO-SS =           0.0000     STORAGE                          
              STO-SY =   419299532.4879                STO-SY =       21032.2332     STORAGE                          
      CSUB-CGELASTIC =     8297055.0510        CSUB-CGELASTIC =          60.9346     CSUB                             
        CSUB-ELASTIC =     2670864.6890          CSUB-ELASTIC =         132.0390     CSUB                             
      CSUB-INELASTIC =           0.0000        CSUB-INELASTIC =           0.0000     CSUB                             
      CSUB-WATERCOMP =     1510701.5697        CSUB-WATERCOMP =          72.2031     CSUB                             
                 WEL =  3155760000.0000                   WEL =           0.0000     WEL_0                            
                 RCH =           0.0000                   RCH =           0.0000     RCH_0                            
                 CHD =  1005683506.6044                   CHD =       25149.8600     CHD_0                            

           TOTAL OUT =  4593221660.4019             TOTAL OUT =       46447.2700

            IN - OUT =       5.6267E-03              IN - OUT =       9.0680E-08

 PERCENT DISCREPANCY =           0.00     PERCENT DISCREPANCY =           0.00




         TIME SUMMARY AT END OF TIME STEP   27 IN STRESS PERIOD    3
                    SECONDS     MINUTES      HOURS       DAYS        YEARS
                    -----------------------------------------------------------
   TIME STEP LENGTH 3.15576E+07 5.25960E+05  8766.0      365.25      1.0000    
 STRESS PERIOD TIME 8.52055E+08 1.42009E+07 2.36682E+05  9861.8      27.000    
         TOTAL TIME 2.74551E+09 4.57585E+07 7.62642E+05  31777.      87.000    


end timestep


start timestep kper="3" kstp="28" mode="normal"

 UBDSV1 SAVING           STO-SS ON UNIT   1020 AT TIME STEP     28, STRESS PERIOD      3
 UBDSV1 SAVING           STO-SY ON UNIT   1020 AT TIME STEP     28, STRESS PERIOD      3
 UBDSV1 SAVING     FLOW-JA-FACE ON UNIT   1020 AT TIME STEP     28, STRESS PERIOD      3
 UBDSV06 SAVING       DATA-SPDIS IN MODEL EX-GWF-CSUB-P04  PACKAGE NPF             CONNECTED TO MODEL EX-GWF-CSUB-P04  PACKAGE NPF              ON UNIT   1020 AT TIME STEP     28, STRESS PERIOD      3
 UBDSV1 SAVING  CSUB-CGELASTIC  ON UNIT   1020 AT TIME STEP     28, STRESS PERIOD      3
 UBDSV06 SAVING    CSUB-ELASTIC  IN MODEL EX-GWF-CSUB-P04  PACKAGE EX-GWF-CSUB-P04 CONNECTED TO MODEL EX-GWF-CSUB-P04  PACKAGE CSUB             ON UNIT   1020 AT TIME STEP     28, STRESS PERIOD      3
 UBDSV06 SAVING  CSUB-INELASTIC  IN MODEL EX-GWF-CSUB-P04  PACKAGE EX-GWF-CSUB-P04 CONNECTED TO MODEL EX-GWF-CSUB-P04  PACKAGE CSUB             ON UNIT   1020 AT TIME STEP     28, STRESS PERIOD      3
 UBDSV1 SAVING  CSUB-WATERCOMP  ON UNIT   1020 AT TIME STEP     28, STRESS PERIOD      3
 UBDSV06 SAVING              WEL IN MODEL EX-GWF-CSUB-P04  PACKAGE EX-GWF-CSUB-P04 CONNECTED TO MODEL EX-GWF-CSUB-P04  PACKAGE WEL_0            ON UNIT   1020 AT TIME STEP     28, STRESS PERIOD      3
 UBDSV06 SAVING              RCH IN MODEL EX-GWF-CSUB-P04  PACKAGE EX-GWF-CSUB-P04 CONNECTED TO MODEL EX-GWF-CSUB-P04  PACKAGE RCH_0            ON UNIT   1020 AT TIME STEP     28, STRESS PERIOD      3
 UBDSV06 SAVING              CHD IN MODEL EX-GWF-CSUB-P04  PACKAGE EX-GWF-CSUB-P04 CONNECTED TO MODEL EX-GWF-CSUB-P04  PACKAGE CHD_0            ON UNIT   1020 AT TIME STEP     28, STRESS PERIOD      3

 HEAD WILL BE SAVED ON UNIT 1021 AT END OF TIME STEP   28, STRESS PERIOD    3


  VOLUME BUDGET FOR ENTIRE MODEL AT END OF TIME STEP   28, STRESS PERIOD   3
  ---------------------------------------------------------------------------------------------------

     CUMULATIVE VOLUME      L**3       RATES FOR THIS TIME STEP      L**3/T          PACKAGE NAME    
     ------------------                 ------------------------                     ----------------

           IN:                                      IN:
           ---                                      ---
              STO-SS =           0.0000                STO-SS =           0.0000     STORAGE                          
              STO-SY =  3287560611.2721                STO-SY =        6299.2903     STORAGE                          
      CSUB-CGELASTIC =     8565370.5314        CSUB-CGELASTIC =          61.1742     CSUB                             
        CSUB-ELASTIC =    23017455.0312          CSUB-ELASTIC =          43.3312     CSUB                             
      CSUB-INELASTIC =     6317392.7041        CSUB-INELASTIC =           0.0000     CSUB                             
      CSUB-WATERCOMP =    11748427.2491        CSUB-WATERCOMP =          21.6564     CSUB                             
                 WEL =           0.0000                   WEL =           0.0000     WEL_0                            
                 RCH =  1272823200.0000                   RCH =       39600.0000     RCH_0                            
                 CHD =           0.0000                   CHD =           0.0000     CHD_0                            

            TOTAL IN =  4610032456.7879              TOTAL IN =       46025.4521

          OUT:                                     OUT:
          ----                                     ----
              STO-SS =           0.0000                STO-SS =           0.0000     STORAGE                          
              STO-SY =   426824873.8837                STO-SY =       20603.2619     STORAGE                          
      CSUB-CGELASTIC =     8318653.0264        CSUB-CGELASTIC =          59.1320     CSUB                             
        CSUB-ELASTIC =     2718160.1307          CSUB-ELASTIC =         129.4879     CSUB                             
      CSUB-INELASTIC =           0.0000        CSUB-INELASTIC =           0.0000     CSUB                             
      CSUB-WATERCOMP =     1536559.2888        CSUB-WATERCOMP =          70.7946     CSUB                             
                 WEL =  3155760000.0000                   WEL =           0.0000     WEL_0                            
                 RCH =           0.0000                   RCH =           0.0000     RCH_0                            
                 CHD =  1014874210.4526                   CHD =       25162.7758     CHD_0                            

           TOTAL OUT =  4610032456.7822             TOTAL OUT =       46025.4521

            IN - OUT =       5.6334E-03              IN - OUT =       2.0234E-08

 PERCENT DISCREPANCY =           0.00     PERCENT DISCREPANCY =           0.00




         TIME SUMMARY AT END OF TIME STEP   28 IN STRESS PERIOD    3
                    SECONDS     MINUTES      HOURS       DAYS        YEARS
                    -----------------------------------------------------------
   TIME STEP LENGTH 3.15576E+07 5.25960E+05  8766.0      365.25      1.0000    
 STRESS PERIOD TIME 8.83613E+08 1.47269E+07 2.45448E+05  10227.      28.000    
         TOTAL TIME 2.77707E+09 4.62845E+07 7.71408E+05  32142.      88.000    


end timestep


start timestep kper="3" kstp="29" mode="normal"

 UBDSV1 SAVING           STO-SS ON UNIT   1020 AT TIME STEP     29, STRESS PERIOD      3
 UBDSV1 SAVING           STO-SY ON UNIT   1020 AT TIME STEP     29, STRESS PERIOD      3
 UBDSV1 SAVING     FLOW-JA-FACE ON UNIT   1020 AT TIME STEP     29, STRESS PERIOD      3
 UBDSV06 SAVING       DATA-SPDIS IN MODEL EX-GWF-CSUB-P04  PACKAGE NPF             CONNECTED TO MODEL EX-GWF-CSUB-P04  PACKAGE NPF              ON UNIT   1020 AT TIME STEP     29, STRESS PERIOD      3
 UBDSV1 SAVING  CSUB-CGELASTIC  ON UNIT   1020 AT TIME STEP     29, STRESS PERIOD      3
 UBDSV06 SAVING    CSUB-ELASTIC  IN MODEL EX-GWF-CSUB-P04  PACKAGE EX-GWF-CSUB-P04 CONNECTED TO MODEL EX-GWF-CSUB-P04  PACKAGE CSUB             ON UNIT   1020 AT TIME STEP     29, STRESS PERIOD      3
 UBDSV06 SAVING  CSUB-INELASTIC  IN MODEL EX-GWF-CSUB-P04  PACKAGE EX-GWF-CSUB-P04 CONNECTED TO MODEL EX-GWF-CSUB-P04  PACKAGE CSUB             ON UNIT   1020 AT TIME STEP     29, STRESS PERIOD      3
 UBDSV1 SAVING  CSUB-WATERCOMP  ON UNIT   1020 AT TIME STEP     29, STRESS PERIOD      3
 UBDSV06 SAVING              WEL IN MODEL EX-GWF-CSUB-P04  PACKAGE EX-GWF-CSUB-P04 CONNECTED TO MODEL EX-GWF-CSUB-P04  PACKAGE WEL_0            ON UNIT   1020 AT TIME STEP     29, STRESS PERIOD      3
 UBDSV06 SAVING              RCH IN MODEL EX-GWF-CSUB-P04  PACKAGE EX-GWF-CSUB-P04 CONNECTED TO MODEL EX-GWF-CSUB-P04  PACKAGE RCH_0            ON UNIT   1020 AT TIME STEP     29, STRESS PERIOD      3
 UBDSV06 SAVING              CHD IN MODEL EX-GWF-CSUB-P04  PACKAGE EX-GWF-CSUB-P04 CONNECTED TO MODEL EX-GWF-CSUB-P04  PACKAGE CHD_0            ON UNIT   1020 AT TIME STEP     29, STRESS PERIOD      3

 HEAD WILL BE SAVED ON UNIT 1021 AT END OF TIME STEP   29, STRESS PERIOD    3


  VOLUME BUDGET FOR ENTIRE MODEL AT END OF TIME STEP   29, STRESS PERIOD   3
  ---------------------------------------------------------------------------------------------------

     CUMULATIVE VOLUME      L**3       RATES FOR THIS TIME STEP      L**3/T          PACKAGE NAME    
     ------------------                 ------------------------                     ----------------

           IN:                                      IN:
           ---                                      ---
              STO-SS =           0.0000                STO-SS =           0.0000     STORAGE                          
              STO-SY =  3289725537.1547                STO-SY =        5927.2440     STORAGE                          
      CSUB-CGELASTIC =     8587094.8640        CSUB-CGELASTIC =          59.4780     CSUB                             
        CSUB-ELASTIC =    23032341.3404          CSUB-ELASTIC =          40.7565     CSUB                             
      CSUB-INELASTIC =     6317392.7041        CSUB-INELASTIC =           0.0000     CSUB                             
      CSUB-WATERCOMP =    11755871.0884        CSUB-WATERCOMP =          20.3801     CSUB                             
                 WEL =           0.0000                   WEL =           0.0000     WEL_0                            
                 RCH =  1287287100.0000                   RCH =       39600.0000     RCH_0                            
                 CHD =           0.0000                   CHD =           0.0000     CHD_0                            

            TOTAL IN =  4626705337.1514              TOTAL IN =       45647.8586

          OUT:                                     OUT:
          ----                                     ----
              STO-SS =           0.0000                STO-SS =           0.0000     STORAGE                          
              STO-SY =   434208435.6919                STO-SY =       20215.0905     STORAGE                          
      CSUB-CGELASTIC =     8339653.8359        CSUB-CGELASTIC =          57.4971     CSUB                             
        CSUB-ELASTIC =     2764599.0098          CSUB-ELASTIC =         127.1427     CSUB                             
      CSUB-INELASTIC =           0.0000        CSUB-INELASTIC =           0.0000     CSUB                             
      CSUB-WATERCOMP =     1561942.3479        CSUB-WATERCOMP =          69.4950     CSUB                             
                 WEL =  3155760000.0000                   WEL =           0.0000     WEL_0                            
                 RCH =           0.0000                   RCH =           0.0000     RCH_0                            
                 CHD =  1024070706.2603                   CHD =       25178.6333     CHD_0                            

           TOTAL OUT =  4626705337.1458             TOTAL OUT =       45647.8586

            IN - OUT =       5.6658E-03              IN - OUT =       8.9567E-08

 PERCENT DISCREPANCY =           0.00     PERCENT DISCREPANCY =           0.00




         TIME SUMMARY AT END OF TIME STEP   29 IN STRESS PERIOD    3
                    SECONDS     MINUTES      HOURS       DAYS        YEARS
                    -----------------------------------------------------------
   TIME STEP LENGTH 3.15576E+07 5.25960E+05  8766.0      365.25      1.0000    
 STRESS PERIOD TIME 9.15170E+08 1.52528E+07 2.54214E+05  10592.      29.000    
         TOTAL TIME 2.80863E+09 4.68104E+07 7.80174E+05  32507.      89.000    


end timestep


start timestep kper="3" kstp="30" mode="normal"

 UBDSV1 SAVING           STO-SS ON UNIT   1020 AT TIME STEP     30, STRESS PERIOD      3
 UBDSV1 SAVING           STO-SY ON UNIT   1020 AT TIME STEP     30, STRESS PERIOD      3
 UBDSV1 SAVING     FLOW-JA-FACE ON UNIT   1020 AT TIME STEP     30, STRESS PERIOD      3
 UBDSV06 SAVING       DATA-SPDIS IN MODEL EX-GWF-CSUB-P04  PACKAGE NPF             CONNECTED TO MODEL EX-GWF-CSUB-P04  PACKAGE NPF              ON UNIT   1020 AT TIME STEP     30, STRESS PERIOD      3
 UBDSV1 SAVING  CSUB-CGELASTIC  ON UNIT   1020 AT TIME STEP     30, STRESS PERIOD      3
 UBDSV06 SAVING    CSUB-ELASTIC  IN MODEL EX-GWF-CSUB-P04  PACKAGE EX-GWF-CSUB-P04 CONNECTED TO MODEL EX-GWF-CSUB-P04  PACKAGE CSUB             ON UNIT   1020 AT TIME STEP     30, STRESS PERIOD      3
 UBDSV06 SAVING  CSUB-INELASTIC  IN MODEL EX-GWF-CSUB-P04  PACKAGE EX-GWF-CSUB-P04 CONNECTED TO MODEL EX-GWF-CSUB-P04  PACKAGE CSUB             ON UNIT   1020 AT TIME STEP     30, STRESS PERIOD      3
 UBDSV1 SAVING  CSUB-WATERCOMP  ON UNIT   1020 AT TIME STEP     30, STRESS PERIOD      3
 UBDSV06 SAVING              WEL IN MODEL EX-GWF-CSUB-P04  PACKAGE EX-GWF-CSUB-P04 CONNECTED TO MODEL EX-GWF-CSUB-P04  PACKAGE WEL_0            ON UNIT   1020 AT TIME STEP     30, STRESS PERIOD      3
 UBDSV06 SAVING              RCH IN MODEL EX-GWF-CSUB-P04  PACKAGE EX-GWF-CSUB-P04 CONNECTED TO MODEL EX-GWF-CSUB-P04  PACKAGE RCH_0            ON UNIT   1020 AT TIME STEP     30, STRESS PERIOD      3
 UBDSV06 SAVING              CHD IN MODEL EX-GWF-CSUB-P04  PACKAGE EX-GWF-CSUB-P04 CONNECTED TO MODEL EX-GWF-CSUB-P04  PACKAGE CHD_0            ON UNIT   1020 AT TIME STEP     30, STRESS PERIOD      3

 HEAD WILL BE SAVED ON UNIT 1021 AT END OF TIME STEP   30, STRESS PERIOD    3


  VOLUME BUDGET FOR ENTIRE MODEL AT END OF TIME STEP   30, STRESS PERIOD   3
  ---------------------------------------------------------------------------------------------------

     CUMULATIVE VOLUME      L**3       RATES FOR THIS TIME STEP      L**3/T          PACKAGE NAME    
     ------------------                 ------------------------                     ----------------

           IN:                                      IN:
           ---                                      ---
              STO-SS =           0.0000                STO-SS =           0.0000     STORAGE                          
              STO-SY =  3291763364.6037                STO-SY =        5579.2675     STORAGE                          
      CSUB-CGELASTIC =     8608235.9582        CSUB-CGELASTIC =          57.8812     CSUB                             
        CSUB-ELASTIC =    23046346.5394          CSUB-ELASTIC =          38.3441     CSUB                             
      CSUB-INELASTIC =     6317392.7041        CSUB-INELASTIC =           0.0000     CSUB                             
      CSUB-WATERCOMP =    11762878.0608        CSUB-WATERCOMP =          19.1840     CSUB                             
                 WEL =           0.0000                   WEL =           0.0000     WEL_0                            
                 RCH =  1301751000.0000                   RCH =       39600.0000     RCH_0                            
                 CHD =           0.0000                   CHD =           0.0000     CHD_0                            

            TOTAL IN =  4643249217.8662              TOTAL IN =       45294.6768

          OUT:                                     OUT:
          ----                                     ----
              STO-SS =           0.0000                STO-SS =           0.0000     STORAGE                          
              STO-SY =   441458048.5685                STO-SY =       19848.3583     STORAGE                          
      CSUB-CGELASTIC =     8360092.4851        CSUB-CGELASTIC =          55.9580     CSUB                             
        CSUB-ELASTIC =     2810226.3144          CSUB-ELASTIC =         124.9208     CSUB                             
      CSUB-INELASTIC =           0.0000        CSUB-INELASTIC =           0.0000     CSUB                             
      CSUB-WATERCOMP =     1586875.9990        CSUB-WATERCOMP =          68.2646     CSUB                             
                 WEL =  3155760000.0000                   WEL =           0.0000     WEL_0                            
                 RCH =           0.0000                   RCH =           0.0000     RCH_0                            
                 CHD =  1033273974.4936                   CHD =       25197.1752     CHD_0                            

           TOTAL OUT =  4643249217.8605             TOTAL OUT =       45294.6768

            IN - OUT =       5.6934E-03              IN - OUT =       7.6070E-08

 PERCENT DISCREPANCY =           0.00     PERCENT DISCREPANCY =           0.00




         TIME SUMMARY AT END OF TIME STEP   30 IN STRESS PERIOD    3
                    SECONDS     MINUTES      HOURS       DAYS        YEARS
                    -----------------------------------------------------------
   TIME STEP LENGTH 3.15576E+07 5.25960E+05  8766.0      365.25      1.0000    
 STRESS PERIOD TIME 9.46728E+08 1.57788E+07 2.62980E+05  10958.      30.000    
         TOTAL TIME 2.84018E+09 4.73364E+07 7.88940E+05  32872.      90.000    


end timestep


start timestep kper="3" kstp="31" mode="normal"

 UBDSV1 SAVING           STO-SS ON UNIT   1020 AT TIME STEP     31, STRESS PERIOD      3
 UBDSV1 SAVING           STO-SY ON UNIT   1020 AT TIME STEP     31, STRESS PERIOD      3
 UBDSV1 SAVING     FLOW-JA-FACE ON UNIT   1020 AT TIME STEP     31, STRESS PERIOD      3
 UBDSV06 SAVING       DATA-SPDIS IN MODEL EX-GWF-CSUB-P04  PACKAGE NPF             CONNECTED TO MODEL EX-GWF-CSUB-P04  PACKAGE NPF              ON UNIT   1020 AT TIME STEP     31, STRESS PERIOD      3
 UBDSV1 SAVING  CSUB-CGELASTIC  ON UNIT   1020 AT TIME STEP     31, STRESS PERIOD      3
 UBDSV06 SAVING    CSUB-ELASTIC  IN MODEL EX-GWF-CSUB-P04  PACKAGE EX-GWF-CSUB-P04 CONNECTED TO MODEL EX-GWF-CSUB-P04  PACKAGE CSUB             ON UNIT   1020 AT TIME STEP     31, STRESS PERIOD      3
 UBDSV06 SAVING  CSUB-INELASTIC  IN MODEL EX-GWF-CSUB-P04  PACKAGE EX-GWF-CSUB-P04 CONNECTED TO MODEL EX-GWF-CSUB-P04  PACKAGE CSUB             ON UNIT   1020 AT TIME STEP     31, STRESS PERIOD      3
 UBDSV1 SAVING  CSUB-WATERCOMP  ON UNIT   1020 AT TIME STEP     31, STRESS PERIOD      3
 UBDSV06 SAVING              WEL IN MODEL EX-GWF-CSUB-P04  PACKAGE EX-GWF-CSUB-P04 CONNECTED TO MODEL EX-GWF-CSUB-P04  PACKAGE WEL_0            ON UNIT   1020 AT TIME STEP     31, STRESS PERIOD      3
 UBDSV06 SAVING              RCH IN MODEL EX-GWF-CSUB-P04  PACKAGE EX-GWF-CSUB-P04 CONNECTED TO MODEL EX-GWF-CSUB-P04  PACKAGE RCH_0            ON UNIT   1020 AT TIME STEP     31, STRESS PERIOD      3
 UBDSV06 SAVING              CHD IN MODEL EX-GWF-CSUB-P04  PACKAGE EX-GWF-CSUB-P04 CONNECTED TO MODEL EX-GWF-CSUB-P04  PACKAGE CHD_0            ON UNIT   1020 AT TIME STEP     31, STRESS PERIOD      3

 HEAD WILL BE SAVED ON UNIT 1021 AT END OF TIME STEP   31, STRESS PERIOD    3


  VOLUME BUDGET FOR ENTIRE MODEL AT END OF TIME STEP   31, STRESS PERIOD   3
  ---------------------------------------------------------------------------------------------------

     CUMULATIVE VOLUME      L**3       RATES FOR THIS TIME STEP      L**3/T          PACKAGE NAME    
     ------------------                 ------------------------                     ----------------

           IN:                                      IN:
           ---                                      ---
              STO-SS =           0.0000                STO-SS =           0.0000     STORAGE                          
              STO-SY =  3293681977.8925                STO-SY =        5252.8769     STORAGE                          
      CSUB-CGELASTIC =     8628825.7200        CSUB-CGELASTIC =          56.3717     CSUB                             
        CSUB-ELASTIC =    23059524.4004          CSUB-ELASTIC =          36.0790     CSUB                             
      CSUB-INELASTIC =     6317392.7041        CSUB-INELASTIC =           0.0000     CSUB                             
      CSUB-WATERCOMP =    11769474.6069        CSUB-WATERCOMP =          18.0604     CSUB                             
                 WEL =           0.0000                   WEL =           0.0000     WEL_0                            
                 RCH =  1316214900.0000                   RCH =       39600.0000     RCH_0                            
                 CHD =           0.0000                   CHD =           0.0000     CHD_0                            

            TOTAL IN =  4659672095.3239              TOTAL IN =       44963.3880

          OUT:                                     OUT:
          ----                                     ----
              STO-SS =           0.0000                STO-SS =           0.0000     STORAGE                          
              STO-SY =   448580721.0873                STO-SY =       19500.8146     STORAGE                          
      CSUB-CGELASTIC =     8379999.7233        CSUB-CGELASTIC =          54.5030     CSUB                             
        CSUB-ELASTIC =     2855082.9553          CSUB-ELASTIC =         122.8108     CSUB                             
      CSUB-INELASTIC =           0.0000        CSUB-INELASTIC =           0.0000     CSUB                             
      CSUB-WATERCOMP =     1611383.0191        CSUB-WATERCOMP =          67.0966     CSUB                             
                 WEL =  3155760000.0000                   WEL =           0.0000     WEL_0                            
                 RCH =           0.0000                   RCH =           0.0000     RCH_0                            
                 CHD =  1042484908.5333                   CHD =       25218.1630     CHD_0                            

           TOTAL OUT =  4659672095.3182             TOTAL OUT =       44963.3880

            IN - OUT =       5.7039E-03              IN - OUT =       2.9715E-08

 PERCENT DISCREPANCY =           0.00     PERCENT DISCREPANCY =           0.00




         TIME SUMMARY AT END OF TIME STEP   31 IN STRESS PERIOD    3
                    SECONDS     MINUTES      HOURS       DAYS        YEARS
                    -----------------------------------------------------------
   TIME STEP LENGTH 3.15576E+07 5.25960E+05  8766.0      365.25      1.0000    
 STRESS PERIOD TIME 9.78286E+08 1.63048E+07 2.71746E+05  11323.      31.000    
         TOTAL TIME 2.87174E+09 4.78624E+07 7.97706E+05  33238.      91.000    


end timestep


start timestep kper="3" kstp="32" mode="normal"

 UBDSV1 SAVING           STO-SS ON UNIT   1020 AT TIME STEP     32, STRESS PERIOD      3
 UBDSV1 SAVING           STO-SY ON UNIT   1020 AT TIME STEP     32, STRESS PERIOD      3
 UBDSV1 SAVING     FLOW-JA-FACE ON UNIT   1020 AT TIME STEP     32, STRESS PERIOD      3
 UBDSV06 SAVING       DATA-SPDIS IN MODEL EX-GWF-CSUB-P04  PACKAGE NPF             CONNECTED TO MODEL EX-GWF-CSUB-P04  PACKAGE NPF              ON UNIT   1020 AT TIME STEP     32, STRESS PERIOD      3
 UBDSV1 SAVING  CSUB-CGELASTIC  ON UNIT   1020 AT TIME STEP     32, STRESS PERIOD      3
 UBDSV06 SAVING    CSUB-ELASTIC  IN MODEL EX-GWF-CSUB-P04  PACKAGE EX-GWF-CSUB-P04 CONNECTED TO MODEL EX-GWF-CSUB-P04  PACKAGE CSUB             ON UNIT   1020 AT TIME STEP     32, STRESS PERIOD      3
 UBDSV06 SAVING  CSUB-INELASTIC  IN MODEL EX-GWF-CSUB-P04  PACKAGE EX-GWF-CSUB-P04 CONNECTED TO MODEL EX-GWF-CSUB-P04  PACKAGE CSUB             ON UNIT   1020 AT TIME STEP     32, STRESS PERIOD      3
 UBDSV1 SAVING  CSUB-WATERCOMP  ON UNIT   1020 AT TIME STEP     32, STRESS PERIOD      3
 UBDSV06 SAVING              WEL IN MODEL EX-GWF-CSUB-P04  PACKAGE EX-GWF-CSUB-P04 CONNECTED TO MODEL EX-GWF-CSUB-P04  PACKAGE WEL_0            ON UNIT   1020 AT TIME STEP     32, STRESS PERIOD      3
 UBDSV06 SAVING              RCH IN MODEL EX-GWF-CSUB-P04  PACKAGE EX-GWF-CSUB-P04 CONNECTED TO MODEL EX-GWF-CSUB-P04  PACKAGE RCH_0            ON UNIT   1020 AT TIME STEP     32, STRESS PERIOD      3
 UBDSV06 SAVING              CHD IN MODEL EX-GWF-CSUB-P04  PACKAGE EX-GWF-CSUB-P04 CONNECTED TO MODEL EX-GWF-CSUB-P04  PACKAGE CHD_0            ON UNIT   1020 AT TIME STEP     32, STRESS PERIOD      3

 HEAD WILL BE SAVED ON UNIT 1021 AT END OF TIME STEP   32, STRESS PERIOD    3


  VOLUME BUDGET FOR ENTIRE MODEL AT END OF TIME STEP   32, STRESS PERIOD   3
  ---------------------------------------------------------------------------------------------------

     CUMULATIVE VOLUME      L**3       RATES FOR THIS TIME STEP      L**3/T          PACKAGE NAME    
     ------------------                 ------------------------                     ----------------

           IN:                                      IN:
           ---                                      ---
              STO-SS =           0.0000                STO-SS =           0.0000     STORAGE                          
              STO-SY =  3295488386.0970                STO-SY =        4945.6761     STORAGE                          
      CSUB-CGELASTIC =     8648892.8801        CSUB-CGELASTIC =          54.9409     CSUB                             
        CSUB-ELASTIC =    23071922.5299          CSUB-ELASTIC =          33.9442     CSUB                             
      CSUB-INELASTIC =     6317392.7041        CSUB-INELASTIC =           0.0000     CSUB                             
      CSUB-WATERCOMP =    11775683.8468        CSUB-WATERCOMP =          17.0000     CSUB                             
                 WEL =           0.0000                   WEL =           0.0000     WEL_0                            
                 RCH =  1330678800.0000                   RCH =       39600.0000     RCH_0                            
                 CHD =           0.0000                   CHD =           0.0000     CHD_0                            

            TOTAL IN =  4675981078.0579              TOTAL IN =       44651.5612

          OUT:                                     OUT:
          ----                                     ----
              STO-SS =           0.0000                STO-SS =           0.0000     STORAGE                          
              STO-SY =   455582665.4684                STO-SY =       19170.2789     STORAGE                          
      CSUB-CGELASTIC =     8399403.2545        CSUB-CGELASTIC =          53.1240     CSUB                             
        CSUB-ELASTIC =     2899204.9615          CSUB-ELASTIC =         120.7995     CSUB                             
      CSUB-INELASTIC =           0.0000        CSUB-INELASTIC =           0.0000     CSUB                             
      CSUB-WATERCOMP =     1635483.2138        CSUB-WATERCOMP =          65.9827     CSUB                             
                 WEL =  3155760000.0000                   WEL =           0.0000     WEL_0                            
                 RCH =           0.0000                   RCH =           0.0000     RCH_0                            
                 CHD =  1051704321.1540                   CHD =       25241.3761     CHD_0                            

           TOTAL OUT =  4675981078.0522             TOTAL OUT =       44651.5612

            IN - OUT =       5.7182E-03              IN - OUT =       3.6816E-08

 PERCENT DISCREPANCY =           0.00     PERCENT DISCREPANCY =           0.00




         TIME SUMMARY AT END OF TIME STEP   32 IN STRESS PERIOD    3
                    SECONDS     MINUTES      HOURS       DAYS        YEARS
                    -----------------------------------------------------------
   TIME STEP LENGTH 3.15576E+07 5.25960E+05  8766.0      365.25      1.0000    
 STRESS PERIOD TIME 1.00984E+09 1.68307E+07 2.80512E+05  11688.      32.000    
         TOTAL TIME 2.90330E+09 4.83883E+07 8.06472E+05  33603.      92.000    


end timestep


start timestep kper="3" kstp="33" mode="normal"

 UBDSV1 SAVING           STO-SS ON UNIT   1020 AT TIME STEP     33, STRESS PERIOD      3
 UBDSV1 SAVING           STO-SY ON UNIT   1020 AT TIME STEP     33, STRESS PERIOD      3
 UBDSV1 SAVING     FLOW-JA-FACE ON UNIT   1020 AT TIME STEP     33, STRESS PERIOD      3
 UBDSV06 SAVING       DATA-SPDIS IN MODEL EX-GWF-CSUB-P04  PACKAGE NPF             CONNECTED TO MODEL EX-GWF-CSUB-P04  PACKAGE NPF              ON UNIT   1020 AT TIME STEP     33, STRESS PERIOD      3
 UBDSV1 SAVING  CSUB-CGELASTIC  ON UNIT   1020 AT TIME STEP     33, STRESS PERIOD      3
 UBDSV06 SAVING    CSUB-ELASTIC  IN MODEL EX-GWF-CSUB-P04  PACKAGE EX-GWF-CSUB-P04 CONNECTED TO MODEL EX-GWF-CSUB-P04  PACKAGE CSUB             ON UNIT   1020 AT TIME STEP     33, STRESS PERIOD      3
 UBDSV06 SAVING  CSUB-INELASTIC  IN MODEL EX-GWF-CSUB-P04  PACKAGE EX-GWF-CSUB-P04 CONNECTED TO MODEL EX-GWF-CSUB-P04  PACKAGE CSUB             ON UNIT   1020 AT TIME STEP     33, STRESS PERIOD      3
 UBDSV1 SAVING  CSUB-WATERCOMP  ON UNIT   1020 AT TIME STEP     33, STRESS PERIOD      3
 UBDSV06 SAVING              WEL IN MODEL EX-GWF-CSUB-P04  PACKAGE EX-GWF-CSUB-P04 CONNECTED TO MODEL EX-GWF-CSUB-P04  PACKAGE WEL_0            ON UNIT   1020 AT TIME STEP     33, STRESS PERIOD      3
 UBDSV06 SAVING              RCH IN MODEL EX-GWF-CSUB-P04  PACKAGE EX-GWF-CSUB-P04 CONNECTED TO MODEL EX-GWF-CSUB-P04  PACKAGE RCH_0            ON UNIT   1020 AT TIME STEP     33, STRESS PERIOD      3
 UBDSV06 SAVING              CHD IN MODEL EX-GWF-CSUB-P04  PACKAGE EX-GWF-CSUB-P04 CONNECTED TO MODEL EX-GWF-CSUB-P04  PACKAGE CHD_0            ON UNIT   1020 AT TIME STEP     33, STRESS PERIOD      3

 HEAD WILL BE SAVED ON UNIT 1021 AT END OF TIME STEP   33, STRESS PERIOD    3


  VOLUME BUDGET FOR ENTIRE MODEL AT END OF TIME STEP   33, STRESS PERIOD   3
  ---------------------------------------------------------------------------------------------------

     CUMULATIVE VOLUME      L**3       RATES FOR THIS TIME STEP      L**3/T          PACKAGE NAME    
     ------------------                 ------------------------                     ----------------

           IN:                                      IN:
           ---                                      ---
              STO-SS =           0.0000                STO-SS =           0.0000     STORAGE                          
              STO-SY =  3297189190.5703                STO-SY =        4656.5489     STORAGE                          
      CSUB-CGELASTIC =     8668465.1683        CSUB-CGELASTIC =          53.5860     CSUB                             
        CSUB-ELASTIC =    23083586.2565          CSUB-ELASTIC =          31.9335     CSUB                             
      CSUB-INELASTIC =     6317392.7041        CSUB-INELASTIC =           0.0000     CSUB                             
      CSUB-WATERCOMP =    11781527.1556        CSUB-WATERCOMP =          15.9981     CSUB                             
                 WEL =           0.0000                   WEL =           0.0000     WEL_0                            
                 RCH =  1345142700.0000                   RCH =       39600.0000     RCH_0                            
                 CHD =           0.0000                   CHD =           0.0000     CHD_0                            

            TOTAL IN =  4692182861.8548              TOTAL IN =       44358.0665

          OUT:                                     OUT:
          ----                                     ----
              STO-SS =           0.0000                STO-SS =           0.0000     STORAGE                          
              STO-SY =   462469759.2089                STO-SY =       18855.8350     STORAGE                          
      CSUB-CGELASTIC =     8418329.8928        CSUB-CGELASTIC =          51.8183     CSUB                             
        CSUB-ELASTIC =     2942627.2225          CSUB-ELASTIC =         118.8837     CSUB                             
      CSUB-INELASTIC =           0.0000        CSUB-INELASTIC =           0.0000     CSUB                             
      CSUB-WATERCOMP =     1659194.9596        CSUB-WATERCOMP =          64.9192     CSUB                             
                 WEL =  3155760000.0000                   WEL =           0.0000     WEL_0                            
                 RCH =           0.0000                   RCH =           0.0000     RCH_0                            
                 CHD =  1060932950.5652                   CHD =       25266.6103     CHD_0                            

           TOTAL OUT =  4692182861.8490             TOTAL OUT =       44358.0665

            IN - OUT =       5.7344E-03              IN - OUT =       4.3772E-08

 PERCENT DISCREPANCY =           0.00     PERCENT DISCREPANCY =           0.00




         TIME SUMMARY AT END OF TIME STEP   33 IN STRESS PERIOD    3
                    SECONDS     MINUTES      HOURS       DAYS        YEARS
                    -----------------------------------------------------------
   TIME STEP LENGTH 3.15576E+07 5.25960E+05  8766.0      365.25      1.0000    
 STRESS PERIOD TIME 1.04140E+09 1.73567E+07 2.89278E+05  12053.      33.000    
         TOTAL TIME 2.93486E+09 4.89143E+07 8.15238E+05  33968.      93.000    


end timestep


start timestep kper="3" kstp="34" mode="normal"

 UBDSV1 SAVING           STO-SS ON UNIT   1020 AT TIME STEP     34, STRESS PERIOD      3
 UBDSV1 SAVING           STO-SY ON UNIT   1020 AT TIME STEP     34, STRESS PERIOD      3
 UBDSV1 SAVING     FLOW-JA-FACE ON UNIT   1020 AT TIME STEP     34, STRESS PERIOD      3
 UBDSV06 SAVING       DATA-SPDIS IN MODEL EX-GWF-CSUB-P04  PACKAGE NPF             CONNECTED TO MODEL EX-GWF-CSUB-P04  PACKAGE NPF              ON UNIT   1020 AT TIME STEP     34, STRESS PERIOD      3
 UBDSV1 SAVING  CSUB-CGELASTIC  ON UNIT   1020 AT TIME STEP     34, STRESS PERIOD      3
 UBDSV06 SAVING    CSUB-ELASTIC  IN MODEL EX-GWF-CSUB-P04  PACKAGE EX-GWF-CSUB-P04 CONNECTED TO MODEL EX-GWF-CSUB-P04  PACKAGE CSUB             ON UNIT   1020 AT TIME STEP     34, STRESS PERIOD      3
 UBDSV06 SAVING  CSUB-INELASTIC  IN MODEL EX-GWF-CSUB-P04  PACKAGE EX-GWF-CSUB-P04 CONNECTED TO MODEL EX-GWF-CSUB-P04  PACKAGE CSUB             ON UNIT   1020 AT TIME STEP     34, STRESS PERIOD      3
 UBDSV1 SAVING  CSUB-WATERCOMP  ON UNIT   1020 AT TIME STEP     34, STRESS PERIOD      3
 UBDSV06 SAVING              WEL IN MODEL EX-GWF-CSUB-P04  PACKAGE EX-GWF-CSUB-P04 CONNECTED TO MODEL EX-GWF-CSUB-P04  PACKAGE WEL_0            ON UNIT   1020 AT TIME STEP     34, STRESS PERIOD      3
 UBDSV06 SAVING              RCH IN MODEL EX-GWF-CSUB-P04  PACKAGE EX-GWF-CSUB-P04 CONNECTED TO MODEL EX-GWF-CSUB-P04  PACKAGE RCH_0            ON UNIT   1020 AT TIME STEP     34, STRESS PERIOD      3
 UBDSV06 SAVING              CHD IN MODEL EX-GWF-CSUB-P04  PACKAGE EX-GWF-CSUB-P04 CONNECTED TO MODEL EX-GWF-CSUB-P04  PACKAGE CHD_0            ON UNIT   1020 AT TIME STEP     34, STRESS PERIOD      3

 HEAD WILL BE SAVED ON UNIT 1021 AT END OF TIME STEP   34, STRESS PERIOD    3


  VOLUME BUDGET FOR ENTIRE MODEL AT END OF TIME STEP   34, STRESS PERIOD   3
  ---------------------------------------------------------------------------------------------------

     CUMULATIVE VOLUME      L**3       RATES FOR THIS TIME STEP      L**3/T          PACKAGE NAME    
     ------------------                 ------------------------                     ----------------

           IN:                                      IN:
           ---                                      ---
              STO-SS =           0.0000                STO-SS =           0.0000     STORAGE                          
              STO-SY =  3298789614.3114                STO-SY =        4381.7214     STORAGE                          
      CSUB-CGELASTIC =     8687565.2074        CSUB-CGELASTIC =          52.2931     CSUB                             
        CSUB-ELASTIC =    23094553.8612          CSUB-ELASTIC =          30.0277     CSUB                             
      CSUB-INELASTIC =     6317392.7041        CSUB-INELASTIC =           0.0000     CSUB                             
      CSUB-WATERCOMP =    11787023.6880        CSUB-WATERCOMP =          15.0487     CSUB                             
                 WEL =           0.0000                   WEL =           0.0000     WEL_0                            
                 RCH =  1359606600.0000                   RCH =       39600.0000     RCH_0                            
                 CHD =           0.0000                   CHD =           0.0000     CHD_0                            

            TOTAL IN =  4708282749.7719              TOTAL IN =       44079.0908

          OUT:                                     OUT:
          ----                                     ----
              STO-SS =           0.0000                STO-SS =           0.0000     STORAGE                          
              STO-SY =   469246568.9988                STO-SY =       18553.8940     STORAGE                          
      CSUB-CGELASTIC =     8436801.4392        CSUB-CGELASTIC =          50.5723     CSUB                             
        CSUB-ELASTIC =     2985378.5922          CSUB-ELASTIC =         117.0469     CSUB                             
      CSUB-INELASTIC =           0.0000        CSUB-INELASTIC =           0.0000     CSUB                             
      CSUB-WATERCOMP =     1682534.7004        CSUB-WATERCOMP =          63.9007     CSUB                             
                 WEL =  3155760000.0000                   WEL =           0.0000     WEL_0                            
                 RCH =           0.0000                   RCH =           0.0000     RCH_0                            
                 CHD =  1070171466.0357                   CHD =       25293.6769     CHD_0                            

           TOTAL OUT =  4708282749.7662             TOTAL OUT =       44079.0908

            IN - OUT =       5.7020E-03              IN - OUT =      -8.9261E-08

 PERCENT DISCREPANCY =           0.00     PERCENT DISCREPANCY =          -0.00




         TIME SUMMARY AT END OF TIME STEP   34 IN STRESS PERIOD    3
                    SECONDS     MINUTES      HOURS       DAYS        YEARS
                    -----------------------------------------------------------
   TIME STEP LENGTH 3.15576E+07 5.25960E+05  8766.0      365.25      1.0000    
 STRESS PERIOD TIME 1.07296E+09 1.78826E+07 2.98044E+05  12418.      34.000    
         TOTAL TIME 2.96641E+09 4.94402E+07 8.24004E+05  34334.      94.000    


end timestep


start timestep kper="3" kstp="35" mode="normal"

 UBDSV1 SAVING           STO-SS ON UNIT   1020 AT TIME STEP     35, STRESS PERIOD      3
 UBDSV1 SAVING           STO-SY ON UNIT   1020 AT TIME STEP     35, STRESS PERIOD      3
 UBDSV1 SAVING     FLOW-JA-FACE ON UNIT   1020 AT TIME STEP     35, STRESS PERIOD      3
 UBDSV06 SAVING       DATA-SPDIS IN MODEL EX-GWF-CSUB-P04  PACKAGE NPF             CONNECTED TO MODEL EX-GWF-CSUB-P04  PACKAGE NPF              ON UNIT   1020 AT TIME STEP     35, STRESS PERIOD      3
 UBDSV1 SAVING  CSUB-CGELASTIC  ON UNIT   1020 AT TIME STEP     35, STRESS PERIOD      3
 UBDSV06 SAVING    CSUB-ELASTIC  IN MODEL EX-GWF-CSUB-P04  PACKAGE EX-GWF-CSUB-P04 CONNECTED TO MODEL EX-GWF-CSUB-P04  PACKAGE CSUB             ON UNIT   1020 AT TIME STEP     35, STRESS PERIOD      3
 UBDSV06 SAVING  CSUB-INELASTIC  IN MODEL EX-GWF-CSUB-P04  PACKAGE EX-GWF-CSUB-P04 CONNECTED TO MODEL EX-GWF-CSUB-P04  PACKAGE CSUB             ON UNIT   1020 AT TIME STEP     35, STRESS PERIOD      3
 UBDSV1 SAVING  CSUB-WATERCOMP  ON UNIT   1020 AT TIME STEP     35, STRESS PERIOD      3
 UBDSV06 SAVING              WEL IN MODEL EX-GWF-CSUB-P04  PACKAGE EX-GWF-CSUB-P04 CONNECTED TO MODEL EX-GWF-CSUB-P04  PACKAGE WEL_0            ON UNIT   1020 AT TIME STEP     35, STRESS PERIOD      3
 UBDSV06 SAVING              RCH IN MODEL EX-GWF-CSUB-P04  PACKAGE EX-GWF-CSUB-P04 CONNECTED TO MODEL EX-GWF-CSUB-P04  PACKAGE RCH_0            ON UNIT   1020 AT TIME STEP     35, STRESS PERIOD      3
 UBDSV06 SAVING              CHD IN MODEL EX-GWF-CSUB-P04  PACKAGE EX-GWF-CSUB-P04 CONNECTED TO MODEL EX-GWF-CSUB-P04  PACKAGE CHD_0            ON UNIT   1020 AT TIME STEP     35, STRESS PERIOD      3

 HEAD WILL BE SAVED ON UNIT 1021 AT END OF TIME STEP   35, STRESS PERIOD    3


  VOLUME BUDGET FOR ENTIRE MODEL AT END OF TIME STEP   35, STRESS PERIOD   3
  ---------------------------------------------------------------------------------------------------

     CUMULATIVE VOLUME      L**3       RATES FOR THIS TIME STEP      L**3/T          PACKAGE NAME    
     ------------------                 ------------------------                     ----------------

           IN:                                      IN:
           ---                                      ---
              STO-SS =           0.0000                STO-SS =           0.0000     STORAGE                          
              STO-SY =  3300294585.2836                STO-SY =        4120.3860     STORAGE                          
      CSUB-CGELASTIC =     8706213.9476        CSUB-CGELASTIC =          51.0575     CSUB                             
        CSUB-ELASTIC =    23104861.8617          CSUB-ELASTIC =          28.2218     CSUB                             
      CSUB-INELASTIC =     6317392.7041        CSUB-INELASTIC =           0.0000     CSUB                             
      CSUB-WATERCOMP =    11792191.7922        CSUB-WATERCOMP =          14.1495     CSUB                             
                 WEL =           0.0000                   WEL =           0.0000     WEL_0                            
                 RCH =  1374070500.0000                   RCH =       39600.0000     RCH_0                            
                 CHD =           0.0000                   CHD =           0.0000     CHD_0                            

            TOTAL IN =  4724285745.5892              TOTAL IN =       43813.8147

          OUT:                                     OUT:
          ----                                     ----
              STO-SS =           0.0000                STO-SS =           0.0000     STORAGE                          
              STO-SY =   475917428.9592                STO-SY =       18263.8192     STORAGE                          
      CSUB-CGELASTIC =     8454838.1036        CSUB-CGELASTIC =          49.3817     CSUB                             
        CSUB-ELASTIC =     3027487.0640          CSUB-ELASTIC =         115.2867     CSUB                             
      CSUB-INELASTIC =           0.0000        CSUB-INELASTIC =           0.0000     CSUB                             
      CSUB-WATERCOMP =     1705518.3351        CSUB-WATERCOMP =          62.9258     CSUB                             
                 WEL =  3155760000.0000                   WEL =           0.0000     WEL_0                            
                 RCH =           0.0000                   RCH =           0.0000     RCH_0                            
                 CHD =  1079420473.1216                   CHD =       25322.4013     CHD_0                            

           TOTAL OUT =  4724285745.5835             TOTAL OUT =       43813.8147

            IN - OUT =       5.7573E-03              IN - OUT =       1.5392E-07

 PERCENT DISCREPANCY =           0.00     PERCENT DISCREPANCY =           0.00




         TIME SUMMARY AT END OF TIME STEP   35 IN STRESS PERIOD    3
                    SECONDS     MINUTES      HOURS       DAYS        YEARS
                    -----------------------------------------------------------
   TIME STEP LENGTH 3.15576E+07 5.25960E+05  8766.0      365.25      1.0000    
 STRESS PERIOD TIME 1.10452E+09 1.84086E+07 3.06810E+05  12784.      35.000    
         TOTAL TIME 2.99797E+09 4.99662E+07 8.32770E+05  34699.      95.000    


end timestep


start timestep kper="3" kstp="36" mode="normal"

 UBDSV1 SAVING           STO-SS ON UNIT   1020 AT TIME STEP     36, STRESS PERIOD      3
 UBDSV1 SAVING           STO-SY ON UNIT   1020 AT TIME STEP     36, STRESS PERIOD      3
 UBDSV1 SAVING     FLOW-JA-FACE ON UNIT   1020 AT TIME STEP     36, STRESS PERIOD      3
 UBDSV06 SAVING       DATA-SPDIS IN MODEL EX-GWF-CSUB-P04  PACKAGE NPF             CONNECTED TO MODEL EX-GWF-CSUB-P04  PACKAGE NPF              ON UNIT   1020 AT TIME STEP     36, STRESS PERIOD      3
 UBDSV1 SAVING  CSUB-CGELASTIC  ON UNIT   1020 AT TIME STEP     36, STRESS PERIOD      3
 UBDSV06 SAVING    CSUB-ELASTIC  IN MODEL EX-GWF-CSUB-P04  PACKAGE EX-GWF-CSUB-P04 CONNECTED TO MODEL EX-GWF-CSUB-P04  PACKAGE CSUB             ON UNIT   1020 AT TIME STEP     36, STRESS PERIOD      3
 UBDSV06 SAVING  CSUB-INELASTIC  IN MODEL EX-GWF-CSUB-P04  PACKAGE EX-GWF-CSUB-P04 CONNECTED TO MODEL EX-GWF-CSUB-P04  PACKAGE CSUB             ON UNIT   1020 AT TIME STEP     36, STRESS PERIOD      3
 UBDSV1 SAVING  CSUB-WATERCOMP  ON UNIT   1020 AT TIME STEP     36, STRESS PERIOD      3
 UBDSV06 SAVING              WEL IN MODEL EX-GWF-CSUB-P04  PACKAGE EX-GWF-CSUB-P04 CONNECTED TO MODEL EX-GWF-CSUB-P04  PACKAGE WEL_0            ON UNIT   1020 AT TIME STEP     36, STRESS PERIOD      3
 UBDSV06 SAVING              RCH IN MODEL EX-GWF-CSUB-P04  PACKAGE EX-GWF-CSUB-P04 CONNECTED TO MODEL EX-GWF-CSUB-P04  PACKAGE RCH_0            ON UNIT   1020 AT TIME STEP     36, STRESS PERIOD      3
 UBDSV06 SAVING              CHD IN MODEL EX-GWF-CSUB-P04  PACKAGE EX-GWF-CSUB-P04 CONNECTED TO MODEL EX-GWF-CSUB-P04  PACKAGE CHD_0            ON UNIT   1020 AT TIME STEP     36, STRESS PERIOD      3

 HEAD WILL BE SAVED ON UNIT 1021 AT END OF TIME STEP   36, STRESS PERIOD    3


  VOLUME BUDGET FOR ENTIRE MODEL AT END OF TIME STEP   36, STRESS PERIOD   3
  ---------------------------------------------------------------------------------------------------

     CUMULATIVE VOLUME      L**3       RATES FOR THIS TIME STEP      L**3/T          PACKAGE NAME    
     ------------------                 ------------------------                     ----------------

           IN:                                      IN:
           ---                                      ---
              STO-SS =           0.0000                STO-SS =           0.0000     STORAGE                          
              STO-SY =  3301709646.3525                STO-SY =        3874.2261     STORAGE                          
      CSUB-CGELASTIC =     8724434.8056        CSUB-CGELASTIC =          49.8860     CSUB                             
        CSUB-ELASTIC =    23114548.8329          CSUB-ELASTIC =          26.5215     CSUB                             
      CSUB-INELASTIC =     6317392.7041        CSUB-INELASTIC =           0.0000     CSUB                             
      CSUB-WATERCOMP =    11797050.1156        CSUB-WATERCOMP =          13.3014     CSUB                             
                 WEL =           0.0000                   WEL =           0.0000     WEL_0                            
                 RCH =  1388534400.0000                   RCH =       39600.0000     RCH_0                            
                 CHD =           0.0000                   CHD =           0.0000     CHD_0                            

            TOTAL IN =  4740197472.8106              TOTAL IN =       43563.9349

          OUT:                                     OUT:
          ----                                     ----
              STO-SS =           0.0000                STO-SS =           0.0000     STORAGE                          
              STO-SY =   482487345.8546                STO-SY =       17987.4521     STORAGE                          
      CSUB-CGELASTIC =     8472462.6314        CSUB-CGELASTIC =          48.2533     CSUB                             
        CSUB-ELASTIC =     3068983.4954          CSUB-ELASTIC =         113.6110     CSUB                             
      CSUB-INELASTIC =           0.0000        CSUB-INELASTIC =           0.0000     CSUB                             
      CSUB-WATERCOMP =     1728162.3005        CSUB-WATERCOMP =          61.9958     CSUB                             
                 WEL =  3155760000.0000                   WEL =           0.0000     WEL_0                            
                 RCH =           0.0000                   RCH =           0.0000     RCH_0                            
                 CHD =  1088680518.5230                   CHD =       25352.6226     CHD_0                            

           TOTAL OUT =  4740197472.8049             TOTAL OUT =       43563.9349

            IN - OUT =       5.7497E-03              IN - OUT =      -2.2206E-08

 PERCENT DISCREPANCY =           0.00     PERCENT DISCREPANCY =          -0.00




         TIME SUMMARY AT END OF TIME STEP   36 IN STRESS PERIOD    3
                    SECONDS     MINUTES      HOURS       DAYS        YEARS
                    -----------------------------------------------------------
   TIME STEP LENGTH 3.15576E+07 5.25960E+05  8766.0      365.25      1.0000    
 STRESS PERIOD TIME 1.13607E+09 1.89346E+07 3.15576E+05  13149.      36.000    
         TOTAL TIME 3.02953E+09 5.04922E+07 8.41536E+05  35064.      96.000    


end timestep


start timestep kper="3" kstp="37" mode="normal"

 UBDSV1 SAVING           STO-SS ON UNIT   1020 AT TIME STEP     37, STRESS PERIOD      3
 UBDSV1 SAVING           STO-SY ON UNIT   1020 AT TIME STEP     37, STRESS PERIOD      3
 UBDSV1 SAVING     FLOW-JA-FACE ON UNIT   1020 AT TIME STEP     37, STRESS PERIOD      3
 UBDSV06 SAVING       DATA-SPDIS IN MODEL EX-GWF-CSUB-P04  PACKAGE NPF             CONNECTED TO MODEL EX-GWF-CSUB-P04  PACKAGE NPF              ON UNIT   1020 AT TIME STEP     37, STRESS PERIOD      3
 UBDSV1 SAVING  CSUB-CGELASTIC  ON UNIT   1020 AT TIME STEP     37, STRESS PERIOD      3
 UBDSV06 SAVING    CSUB-ELASTIC  IN MODEL EX-GWF-CSUB-P04  PACKAGE EX-GWF-CSUB-P04 CONNECTED TO MODEL EX-GWF-CSUB-P04  PACKAGE CSUB             ON UNIT   1020 AT TIME STEP     37, STRESS PERIOD      3
 UBDSV06 SAVING  CSUB-INELASTIC  IN MODEL EX-GWF-CSUB-P04  PACKAGE EX-GWF-CSUB-P04 CONNECTED TO MODEL EX-GWF-CSUB-P04  PACKAGE CSUB             ON UNIT   1020 AT TIME STEP     37, STRESS PERIOD      3
 UBDSV1 SAVING  CSUB-WATERCOMP  ON UNIT   1020 AT TIME STEP     37, STRESS PERIOD      3
 UBDSV06 SAVING              WEL IN MODEL EX-GWF-CSUB-P04  PACKAGE EX-GWF-CSUB-P04 CONNECTED TO MODEL EX-GWF-CSUB-P04  PACKAGE WEL_0            ON UNIT   1020 AT TIME STEP     37, STRESS PERIOD      3
 UBDSV06 SAVING              RCH IN MODEL EX-GWF-CSUB-P04  PACKAGE EX-GWF-CSUB-P04 CONNECTED TO MODEL EX-GWF-CSUB-P04  PACKAGE RCH_0            ON UNIT   1020 AT TIME STEP     37, STRESS PERIOD      3
 UBDSV06 SAVING              CHD IN MODEL EX-GWF-CSUB-P04  PACKAGE EX-GWF-CSUB-P04 CONNECTED TO MODEL EX-GWF-CSUB-P04  PACKAGE CHD_0            ON UNIT   1020 AT TIME STEP     37, STRESS PERIOD      3

 HEAD WILL BE SAVED ON UNIT 1021 AT END OF TIME STEP   37, STRESS PERIOD    3


  VOLUME BUDGET FOR ENTIRE MODEL AT END OF TIME STEP   37, STRESS PERIOD   3
  ---------------------------------------------------------------------------------------------------

     CUMULATIVE VOLUME      L**3       RATES FOR THIS TIME STEP      L**3/T          PACKAGE NAME    
     ------------------                 ------------------------                     ----------------

           IN:                                      IN:
           ---                                      ---
              STO-SS =           0.0000                STO-SS =           0.0000     STORAGE                          
              STO-SY =  3303040073.3824                STO-SY =        3642.5107     STORAGE                          
      CSUB-CGELASTIC =     8742249.1710        CSUB-CGELASTIC =          48.7731     CSUB                             
        CSUB-ELASTIC =    23123649.8779          CSUB-ELASTIC =          24.9173     CSUB                             
      CSUB-INELASTIC =     6317392.7041        CSUB-INELASTIC =           0.0000     CSUB                             
      CSUB-WATERCOMP =    11801616.4609        CSUB-WATERCOMP =          12.5020     CSUB                             
                 WEL =           0.0000                   WEL =           0.0000     WEL_0                            
                 RCH =  1402998300.0000                   RCH =       39600.0000     RCH_0                            
                 CHD =           0.0000                   CHD =           0.0000     CHD_0                            

            TOTAL IN =  4756023281.5963              TOTAL IN =       43328.7030

          OUT:                                     OUT:
          ----                                     ----
              STO-SS =           0.0000                STO-SS =           0.0000     STORAGE                          
              STO-SY =   488961112.7976                STO-SY =       17724.2079     STORAGE                          
      CSUB-CGELASTIC =     8489695.8014        CSUB-CGELASTIC =          47.1818     CSUB                             
        CSUB-ELASTIC =     3109895.9964          CSUB-ELASTIC =         112.0123     CSUB                             
      CSUB-INELASTIC =           0.0000        CSUB-INELASTIC =           0.0000     CSUB                             
      CSUB-WATERCOMP =     1750482.4064        CSUB-WATERCOMP =          61.1091     CSUB                             
                 WEL =  3155760000.0000                   WEL =           0.0000     WEL_0                            
                 RCH =           0.0000                   RCH =           0.0000     RCH_0                            
                 CHD =  1097952094.5888                   CHD =       25384.1918     CHD_0                            

           TOTAL OUT =  4756023281.5905             TOTAL OUT =       43328.7030

            IN - OUT =       5.7316E-03              IN - OUT =      -4.8334E-08

 PERCENT DISCREPANCY =           0.00     PERCENT DISCREPANCY =          -0.00




         TIME SUMMARY AT END OF TIME STEP   37 IN STRESS PERIOD    3
                    SECONDS     MINUTES      HOURS       DAYS        YEARS
                    -----------------------------------------------------------
   TIME STEP LENGTH 3.15576E+07 5.25960E+05  8766.0      365.25      1.0000    
 STRESS PERIOD TIME 1.16763E+09 1.94605E+07 3.24342E+05  13514.      37.000    
         TOTAL TIME 3.06109E+09 5.10181E+07 8.50302E+05  35429.      97.000    


end timestep


start timestep kper="3" kstp="38" mode="normal"

 UBDSV1 SAVING           STO-SS ON UNIT   1020 AT TIME STEP     38, STRESS PERIOD      3
 UBDSV1 SAVING           STO-SY ON UNIT   1020 AT TIME STEP     38, STRESS PERIOD      3
 UBDSV1 SAVING     FLOW-JA-FACE ON UNIT   1020 AT TIME STEP     38, STRESS PERIOD      3
 UBDSV06 SAVING       DATA-SPDIS IN MODEL EX-GWF-CSUB-P04  PACKAGE NPF             CONNECTED TO MODEL EX-GWF-CSUB-P04  PACKAGE NPF              ON UNIT   1020 AT TIME STEP     38, STRESS PERIOD      3
 UBDSV1 SAVING  CSUB-CGELASTIC  ON UNIT   1020 AT TIME STEP     38, STRESS PERIOD      3
 UBDSV06 SAVING    CSUB-ELASTIC  IN MODEL EX-GWF-CSUB-P04  PACKAGE EX-GWF-CSUB-P04 CONNECTED TO MODEL EX-GWF-CSUB-P04  PACKAGE CSUB             ON UNIT   1020 AT TIME STEP     38, STRESS PERIOD      3
 UBDSV06 SAVING  CSUB-INELASTIC  IN MODEL EX-GWF-CSUB-P04  PACKAGE EX-GWF-CSUB-P04 CONNECTED TO MODEL EX-GWF-CSUB-P04  PACKAGE CSUB             ON UNIT   1020 AT TIME STEP     38, STRESS PERIOD      3
 UBDSV1 SAVING  CSUB-WATERCOMP  ON UNIT   1020 AT TIME STEP     38, STRESS PERIOD      3
 UBDSV06 SAVING              WEL IN MODEL EX-GWF-CSUB-P04  PACKAGE EX-GWF-CSUB-P04 CONNECTED TO MODEL EX-GWF-CSUB-P04  PACKAGE WEL_0            ON UNIT   1020 AT TIME STEP     38, STRESS PERIOD      3
 UBDSV06 SAVING              RCH IN MODEL EX-GWF-CSUB-P04  PACKAGE EX-GWF-CSUB-P04 CONNECTED TO MODEL EX-GWF-CSUB-P04  PACKAGE RCH_0            ON UNIT   1020 AT TIME STEP     38, STRESS PERIOD      3
 UBDSV06 SAVING              CHD IN MODEL EX-GWF-CSUB-P04  PACKAGE EX-GWF-CSUB-P04 CONNECTED TO MODEL EX-GWF-CSUB-P04  PACKAGE CHD_0            ON UNIT   1020 AT TIME STEP     38, STRESS PERIOD      3

 HEAD WILL BE SAVED ON UNIT 1021 AT END OF TIME STEP   38, STRESS PERIOD    3


  VOLUME BUDGET FOR ENTIRE MODEL AT END OF TIME STEP   38, STRESS PERIOD   3
  ---------------------------------------------------------------------------------------------------

     CUMULATIVE VOLUME      L**3       RATES FOR THIS TIME STEP      L**3/T          PACKAGE NAME    
     ------------------                 ------------------------                     ----------------

           IN:                                      IN:
           ---                                      ---
              STO-SS =           0.0000                STO-SS =           0.0000     STORAGE                          
              STO-SY =  3304290348.1207                STO-SY =        3423.0657     STORAGE                          
      CSUB-CGELASTIC =     8759675.5062        CSUB-CGELASTIC =          47.7107     CSUB                             
        CSUB-ELASTIC =    23132195.6385          CSUB-ELASTIC =          23.3970     CSUB                             
      CSUB-INELASTIC =     6317392.7041        CSUB-INELASTIC =           0.0000     CSUB                             
      CSUB-WATERCOMP =    11805905.7335        CSUB-WATERCOMP =          11.7434     CSUB                             
                 WEL =           0.0000                   WEL =           0.0000     WEL_0                            
                 RCH =  1417462200.0000                   RCH =       39600.0000     RCH_0                            
                 CHD =           0.0000                   CHD =           0.0000     CHD_0                            

            TOTAL IN =  4771767717.7031              TOTAL IN =       43105.9168

          OUT:                                     OUT:
          ----                                     ----
              STO-SS =           0.0000                STO-SS =           0.0000     STORAGE                          
              STO-SY =   495342778.0555                STO-SY =       17472.0472     STORAGE                          
      CSUB-CGELASTIC =     8506555.5166        CSUB-CGELASTIC =          46.1594     CSUB                             
        CSUB-ELASTIC =     3150248.8655          CSUB-ELASTIC =         110.4801     CSUB                             
      CSUB-INELASTIC =           0.0000        CSUB-INELASTIC =           0.0000     CSUB                             
      CSUB-WATERCOMP =     1772491.7642        CSUB-WATERCOMP =          60.2583     CSUB                             
                 WEL =  3155760000.0000                   WEL =           0.0000     WEL_0                            
                 RCH =           0.0000                   RCH =           0.0000     RCH_0                            
                 CHD =  1107235643.4954                   CHD =       25416.9717     CHD_0                            

           TOTAL OUT =  4771767717.6973             TOTAL OUT =       43105.9168

            IN - OUT =       5.7507E-03              IN - OUT =       5.0844E-08

 PERCENT DISCREPANCY =           0.00     PERCENT DISCREPANCY =           0.00




         TIME SUMMARY AT END OF TIME STEP   38 IN STRESS PERIOD    3
                    SECONDS     MINUTES      HOURS       DAYS        YEARS
                    -----------------------------------------------------------
   TIME STEP LENGTH 3.15576E+07 5.25960E+05  8766.0      365.25      1.0000    
 STRESS PERIOD TIME 1.19919E+09 1.99865E+07 3.33108E+05  13880.      38.000    
         TOTAL TIME 3.09264E+09 5.15441E+07 8.59068E+05  35794.      98.000    


end timestep


start timestep kper="3" kstp="39" mode="normal"

 UBDSV1 SAVING           STO-SS ON UNIT   1020 AT TIME STEP     39, STRESS PERIOD      3
 UBDSV1 SAVING           STO-SY ON UNIT   1020 AT TIME STEP     39, STRESS PERIOD      3
 UBDSV1 SAVING     FLOW-JA-FACE ON UNIT   1020 AT TIME STEP     39, STRESS PERIOD      3
 UBDSV06 SAVING       DATA-SPDIS IN MODEL EX-GWF-CSUB-P04  PACKAGE NPF             CONNECTED TO MODEL EX-GWF-CSUB-P04  PACKAGE NPF              ON UNIT   1020 AT TIME STEP     39, STRESS PERIOD      3
 UBDSV1 SAVING  CSUB-CGELASTIC  ON UNIT   1020 AT TIME STEP     39, STRESS PERIOD      3
 UBDSV06 SAVING    CSUB-ELASTIC  IN MODEL EX-GWF-CSUB-P04  PACKAGE EX-GWF-CSUB-P04 CONNECTED TO MODEL EX-GWF-CSUB-P04  PACKAGE CSUB             ON UNIT   1020 AT TIME STEP     39, STRESS PERIOD      3
 UBDSV06 SAVING  CSUB-INELASTIC  IN MODEL EX-GWF-CSUB-P04  PACKAGE EX-GWF-CSUB-P04 CONNECTED TO MODEL EX-GWF-CSUB-P04  PACKAGE CSUB             ON UNIT   1020 AT TIME STEP     39, STRESS PERIOD      3
 UBDSV1 SAVING  CSUB-WATERCOMP  ON UNIT   1020 AT TIME STEP     39, STRESS PERIOD      3
 UBDSV06 SAVING              WEL IN MODEL EX-GWF-CSUB-P04  PACKAGE EX-GWF-CSUB-P04 CONNECTED TO MODEL EX-GWF-CSUB-P04  PACKAGE WEL_0            ON UNIT   1020 AT TIME STEP     39, STRESS PERIOD      3
 UBDSV06 SAVING              RCH IN MODEL EX-GWF-CSUB-P04  PACKAGE EX-GWF-CSUB-P04 CONNECTED TO MODEL EX-GWF-CSUB-P04  PACKAGE RCH_0            ON UNIT   1020 AT TIME STEP     39, STRESS PERIOD      3
 UBDSV06 SAVING              CHD IN MODEL EX-GWF-CSUB-P04  PACKAGE EX-GWF-CSUB-P04 CONNECTED TO MODEL EX-GWF-CSUB-P04  PACKAGE CHD_0            ON UNIT   1020 AT TIME STEP     39, STRESS PERIOD      3

 HEAD WILL BE SAVED ON UNIT 1021 AT END OF TIME STEP   39, STRESS PERIOD    3


  VOLUME BUDGET FOR ENTIRE MODEL AT END OF TIME STEP   39, STRESS PERIOD   3
  ---------------------------------------------------------------------------------------------------

     CUMULATIVE VOLUME      L**3       RATES FOR THIS TIME STEP      L**3/T          PACKAGE NAME    
     ------------------                 ------------------------                     ----------------

           IN:                                      IN:
           ---                                      ---
              STO-SS =           0.0000                STO-SS =           0.0000     STORAGE                          
              STO-SY =  3305465066.0988                STO-SY =        3216.2025     STORAGE                          
      CSUB-CGELASTIC =     8776732.5527        CSUB-CGELASTIC =          46.6996     CSUB                             
        CSUB-ELASTIC =    23140216.1451          CSUB-ELASTIC =          21.9590     CSUB                             
      CSUB-INELASTIC =     6317392.7041        CSUB-INELASTIC =           0.0000     CSUB                             
      CSUB-WATERCOMP =    11809932.3936        CSUB-WATERCOMP =          11.0244     CSUB                             
                 WEL =           0.0000                   WEL =           0.0000     WEL_0                            
                 RCH =  1431926100.0000                   RCH =       39600.0000     RCH_0                            
                 CHD =           0.0000                   CHD =           0.0000     CHD_0                            

            TOTAL IN =  4787435439.8943              TOTAL IN =       42895.8855

          OUT:                                     OUT:
          ----                                     ----
              STO-SS =           0.0000                STO-SS =           0.0000     STORAGE                          
              STO-SY =   501636549.1685                STO-SY =       17231.4062     STORAGE                          
      CSUB-CGELASTIC =     8523060.0048        CSUB-CGELASTIC =          45.1868     CSUB                             
        CSUB-ELASTIC =     3190066.3764          CSUB-ELASTIC =         109.0144     CSUB                             
      CSUB-INELASTIC =           0.0000        CSUB-INELASTIC =           0.0000     CSUB                             
      CSUB-WATERCOMP =     1794203.2217        CSUB-WATERCOMP =          59.4427     CSUB                             
                 WEL =  3155760000.0000                   WEL =           0.0000     WEL_0                            
                 RCH =           0.0000                   RCH =           0.0000     RCH_0                            
                 CHD =  1116531561.1172                   CHD =       25450.8354     CHD_0                            

           TOTAL OUT =  4787435439.8885             TOTAL OUT =       42895.8855

            IN - OUT =       5.7688E-03              IN - OUT =       4.8334E-08

 PERCENT DISCREPANCY =           0.00     PERCENT DISCREPANCY =           0.00




         TIME SUMMARY AT END OF TIME STEP   39 IN STRESS PERIOD    3
                    SECONDS     MINUTES      HOURS       DAYS        YEARS
                    -----------------------------------------------------------
   TIME STEP LENGTH 3.15576E+07 5.25960E+05  8766.0      365.25      1.0000    
 STRESS PERIOD TIME 1.23075E+09 2.05124E+07 3.41874E+05  14245.      39.000    
         TOTAL TIME 3.12420E+09 5.20700E+07 8.67834E+05  36160.      99.000    


end timestep


start timestep kper="3" kstp="40" mode="normal"

 UBDSV1 SAVING           STO-SS ON UNIT   1020 AT TIME STEP     40, STRESS PERIOD      3
 UBDSV1 SAVING           STO-SY ON UNIT   1020 AT TIME STEP     40, STRESS PERIOD      3
 UBDSV1 SAVING     FLOW-JA-FACE ON UNIT   1020 AT TIME STEP     40, STRESS PERIOD      3
 UBDSV06 SAVING       DATA-SPDIS IN MODEL EX-GWF-CSUB-P04  PACKAGE NPF             CONNECTED TO MODEL EX-GWF-CSUB-P04  PACKAGE NPF              ON UNIT   1020 AT TIME STEP     40, STRESS PERIOD      3
 UBDSV1 SAVING  CSUB-CGELASTIC  ON UNIT   1020 AT TIME STEP     40, STRESS PERIOD      3
 UBDSV06 SAVING    CSUB-ELASTIC  IN MODEL EX-GWF-CSUB-P04  PACKAGE EX-GWF-CSUB-P04 CONNECTED TO MODEL EX-GWF-CSUB-P04  PACKAGE CSUB             ON UNIT   1020 AT TIME STEP     40, STRESS PERIOD      3
 UBDSV06 SAVING  CSUB-INELASTIC  IN MODEL EX-GWF-CSUB-P04  PACKAGE EX-GWF-CSUB-P04 CONNECTED TO MODEL EX-GWF-CSUB-P04  PACKAGE CSUB             ON UNIT   1020 AT TIME STEP     40, STRESS PERIOD      3
 UBDSV1 SAVING  CSUB-WATERCOMP  ON UNIT   1020 AT TIME STEP     40, STRESS PERIOD      3
 UBDSV06 SAVING              WEL IN MODEL EX-GWF-CSUB-P04  PACKAGE EX-GWF-CSUB-P04 CONNECTED TO MODEL EX-GWF-CSUB-P04  PACKAGE WEL_0            ON UNIT   1020 AT TIME STEP     40, STRESS PERIOD      3
 UBDSV06 SAVING              RCH IN MODEL EX-GWF-CSUB-P04  PACKAGE EX-GWF-CSUB-P04 CONNECTED TO MODEL EX-GWF-CSUB-P04  PACKAGE RCH_0            ON UNIT   1020 AT TIME STEP     40, STRESS PERIOD      3
 UBDSV06 SAVING              CHD IN MODEL EX-GWF-CSUB-P04  PACKAGE EX-GWF-CSUB-P04 CONNECTED TO MODEL EX-GWF-CSUB-P04  PACKAGE CHD_0            ON UNIT   1020 AT TIME STEP     40, STRESS PERIOD      3

 HEAD WILL BE SAVED ON UNIT 1021 AT END OF TIME STEP   40, STRESS PERIOD    3


  VOLUME BUDGET FOR ENTIRE MODEL AT END OF TIME STEP   40, STRESS PERIOD   3
  ---------------------------------------------------------------------------------------------------

     CUMULATIVE VOLUME      L**3       RATES FOR THIS TIME STEP      L**3/T          PACKAGE NAME    
     ------------------                 ------------------------                     ----------------

           IN:                                      IN:
           ---                                      ---
              STO-SS =           0.0000                STO-SS =           0.0000     STORAGE                          
              STO-SY =  3306567610.7674                STO-SY =        3018.6028     STORAGE                          
      CSUB-CGELASTIC =     8793434.6166        CSUB-CGELASTIC =          45.7278     CSUB                             
        CSUB-ELASTIC =    23147735.3009          CSUB-ELASTIC =          20.5863     CSUB                             
      CSUB-INELASTIC =     6317392.7041        CSUB-INELASTIC =           0.0000     CSUB                             
      CSUB-WATERCOMP =    11813708.1498        CSUB-WATERCOMP =          10.3375     CSUB                             
                 WEL =           0.0000                   WEL =           0.0000     WEL_0                            
                 RCH =  1446390000.0000                   RCH =       39600.0000     RCH_0                            
                 CHD =           0.0000                   CHD =           0.0000     CHD_0                            

            TOTAL IN =  4803029881.5388              TOTAL IN =       42695.2543

          OUT:                                     OUT:
          ----                                     ----
              STO-SS =           0.0000                STO-SS =           0.0000     STORAGE                          
              STO-SY =   507845463.5774                STO-SY =       16999.0812     STORAGE                          
      CSUB-CGELASTIC =     8539223.0972        CSUB-CGELASTIC =          44.2521     CSUB                             
        CSUB-ELASTIC =     3229367.2043          CSUB-ELASTIC =         107.5998     CSUB                             
      CSUB-INELASTIC =           0.0000        CSUB-INELASTIC =           0.0000     CSUB                             
      CSUB-WATERCOMP =     1815627.0417        CSUB-WATERCOMP =          58.6552     CSUB                             
                 WEL =  3155760000.0000                   WEL =           0.0000     WEL_0                            
                 RCH =           0.0000                   RCH =           0.0000     RCH_0                            
                 CHD =  1125840200.6124                   CHD =       25485.6660     CHD_0                            

           TOTAL OUT =  4803029881.5330             TOTAL OUT =       42695.2543

            IN - OUT =       5.7678E-03              IN - OUT =      -3.7835E-10

 PERCENT DISCREPANCY =           0.00     PERCENT DISCREPANCY =          -0.00




         TIME SUMMARY AT END OF TIME STEP   40 IN STRESS PERIOD    3
                    SECONDS     MINUTES      HOURS       DAYS        YEARS
                    -----------------------------------------------------------
   TIME STEP LENGTH 3.15576E+07 5.25960E+05  8766.0      365.25      1.0000    
 STRESS PERIOD TIME 1.26230E+09 2.10384E+07 3.50640E+05  14610.      40.000    
         TOTAL TIME 3.15576E+09 5.25960E+07 8.76600E+05  36525.      100.00    


end timestep


start timestep kper="3" kstp="41" mode="normal"

 UBDSV1 SAVING           STO-SS ON UNIT   1020 AT TIME STEP     41, STRESS PERIOD      3
 UBDSV1 SAVING           STO-SY ON UNIT   1020 AT TIME STEP     41, STRESS PERIOD      3
 UBDSV1 SAVING     FLOW-JA-FACE ON UNIT   1020 AT TIME STEP     41, STRESS PERIOD      3
 UBDSV06 SAVING       DATA-SPDIS IN MODEL EX-GWF-CSUB-P04  PACKAGE NPF             CONNECTED TO MODEL EX-GWF-CSUB-P04  PACKAGE NPF              ON UNIT   1020 AT TIME STEP     41, STRESS PERIOD      3
 UBDSV1 SAVING  CSUB-CGELASTIC  ON UNIT   1020 AT TIME STEP     41, STRESS PERIOD      3
 UBDSV06 SAVING    CSUB-ELASTIC  IN MODEL EX-GWF-CSUB-P04  PACKAGE EX-GWF-CSUB-P04 CONNECTED TO MODEL EX-GWF-CSUB-P04  PACKAGE CSUB             ON UNIT   1020 AT TIME STEP     41, STRESS PERIOD      3
 UBDSV06 SAVING  CSUB-INELASTIC  IN MODEL EX-GWF-CSUB-P04  PACKAGE EX-GWF-CSUB-P04 CONNECTED TO MODEL EX-GWF-CSUB-P04  PACKAGE CSUB             ON UNIT   1020 AT TIME STEP     41, STRESS PERIOD      3
 UBDSV1 SAVING  CSUB-WATERCOMP  ON UNIT   1020 AT TIME STEP     41, STRESS PERIOD      3
 UBDSV06 SAVING              WEL IN MODEL EX-GWF-CSUB-P04  PACKAGE EX-GWF-CSUB-P04 CONNECTED TO MODEL EX-GWF-CSUB-P04  PACKAGE WEL_0            ON UNIT   1020 AT TIME STEP     41, STRESS PERIOD      3
 UBDSV06 SAVING              RCH IN MODEL EX-GWF-CSUB-P04  PACKAGE EX-GWF-CSUB-P04 CONNECTED TO MODEL EX-GWF-CSUB-P04  PACKAGE RCH_0            ON UNIT   1020 AT TIME STEP     41, STRESS PERIOD      3
 UBDSV06 SAVING              CHD IN MODEL EX-GWF-CSUB-P04  PACKAGE EX-GWF-CSUB-P04 CONNECTED TO MODEL EX-GWF-CSUB-P04  PACKAGE CHD_0            ON UNIT   1020 AT TIME STEP     41, STRESS PERIOD      3

 HEAD WILL BE SAVED ON UNIT 1021 AT END OF TIME STEP   41, STRESS PERIOD    3


  VOLUME BUDGET FOR ENTIRE MODEL AT END OF TIME STEP   41, STRESS PERIOD   3
  ---------------------------------------------------------------------------------------------------

     CUMULATIVE VOLUME      L**3       RATES FOR THIS TIME STEP      L**3/T          PACKAGE NAME    
     ------------------                 ------------------------                     ----------------

           IN:                                      IN:
           ---                                      ---
              STO-SS =           0.0000                STO-SS =           0.0000     STORAGE                          
              STO-SY =  3307601173.4982                STO-SY =        2829.7405     STORAGE                          
      CSUB-CGELASTIC =     8809795.2366        CSUB-CGELASTIC =          44.7929     CSUB                             
        CSUB-ELASTIC =    23154775.6190          CSUB-ELASTIC =          19.2753     CSUB                             
      CSUB-INELASTIC =     6317392.7041        CSUB-INELASTIC =           0.0000     CSUB                             
      CSUB-WATERCOMP =    11817244.0478        CSUB-WATERCOMP =           9.6808     CSUB                             
                 WEL =           0.0000                   WEL =           0.0000     WEL_0                            
                 RCH =  1460853900.0000                   RCH =       39600.0000     RCH_0                            
                 CHD =           0.0000                   CHD =           0.0000     CHD_0                            

            TOTAL IN =  4818554281.1056              TOTAL IN =       42503.4896

          OUT:                                     OUT:
          ----                                     ----
              STO-SS =           0.0000                STO-SS =           0.0000     STORAGE                          
              STO-SY =   513972405.3754                STO-SY =       16774.6524     STORAGE                          
      CSUB-CGELASTIC =     8555057.8923        CSUB-CGELASTIC =          43.3533     CSUB                             
        CSUB-ELASTIC =     3268169.1131          CSUB-ELASTIC =         106.2338     CSUB                             
      CSUB-INELASTIC =           0.0000        CSUB-INELASTIC =           0.0000     CSUB                             
      CSUB-WATERCOMP =     1836772.9762        CSUB-WATERCOMP =          57.8944     CSUB                             
                 WEL =  3155760000.0000                   WEL =           0.0000     WEL_0                            
                 RCH =           0.0000                   RCH =           0.0000     RCH_0                            
                 CHD =  1135161875.7427                   CHD =       25521.3556     CHD_0                            

           TOTAL OUT =  4818554281.0998             TOTAL OUT =       42503.4896

            IN - OUT =       5.7812E-03              IN - OUT =       3.5769E-08

 PERCENT DISCREPANCY =           0.00     PERCENT DISCREPANCY =           0.00




         TIME SUMMARY AT END OF TIME STEP   41 IN STRESS PERIOD    3
                    SECONDS     MINUTES      HOURS       DAYS        YEARS
                    -----------------------------------------------------------
   TIME STEP LENGTH 3.15576E+07 5.25960E+05  8766.0      365.25      1.0000    
 STRESS PERIOD TIME 1.29386E+09 2.15644E+07 3.59406E+05  14975.      41.000    
         TOTAL TIME 3.18732E+09 5.31220E+07 8.85366E+05  36890.      101.00    


end timestep


start timestep kper="3" kstp="42" mode="normal"

 UBDSV1 SAVING           STO-SS ON UNIT   1020 AT TIME STEP     42, STRESS PERIOD      3
 UBDSV1 SAVING           STO-SY ON UNIT   1020 AT TIME STEP     42, STRESS PERIOD      3
 UBDSV1 SAVING     FLOW-JA-FACE ON UNIT   1020 AT TIME STEP     42, STRESS PERIOD      3
 UBDSV06 SAVING       DATA-SPDIS IN MODEL EX-GWF-CSUB-P04  PACKAGE NPF             CONNECTED TO MODEL EX-GWF-CSUB-P04  PACKAGE NPF              ON UNIT   1020 AT TIME STEP     42, STRESS PERIOD      3
 UBDSV1 SAVING  CSUB-CGELASTIC  ON UNIT   1020 AT TIME STEP     42, STRESS PERIOD      3
 UBDSV06 SAVING    CSUB-ELASTIC  IN MODEL EX-GWF-CSUB-P04  PACKAGE EX-GWF-CSUB-P04 CONNECTED TO MODEL EX-GWF-CSUB-P04  PACKAGE CSUB             ON UNIT   1020 AT TIME STEP     42, STRESS PERIOD      3
 UBDSV06 SAVING  CSUB-INELASTIC  IN MODEL EX-GWF-CSUB-P04  PACKAGE EX-GWF-CSUB-P04 CONNECTED TO MODEL EX-GWF-CSUB-P04  PACKAGE CSUB             ON UNIT   1020 AT TIME STEP     42, STRESS PERIOD      3
 UBDSV1 SAVING  CSUB-WATERCOMP  ON UNIT   1020 AT TIME STEP     42, STRESS PERIOD      3
 UBDSV06 SAVING              WEL IN MODEL EX-GWF-CSUB-P04  PACKAGE EX-GWF-CSUB-P04 CONNECTED TO MODEL EX-GWF-CSUB-P04  PACKAGE WEL_0            ON UNIT   1020 AT TIME STEP     42, STRESS PERIOD      3
 UBDSV06 SAVING              RCH IN MODEL EX-GWF-CSUB-P04  PACKAGE EX-GWF-CSUB-P04 CONNECTED TO MODEL EX-GWF-CSUB-P04  PACKAGE RCH_0            ON UNIT   1020 AT TIME STEP     42, STRESS PERIOD      3
 UBDSV06 SAVING              CHD IN MODEL EX-GWF-CSUB-P04  PACKAGE EX-GWF-CSUB-P04 CONNECTED TO MODEL EX-GWF-CSUB-P04  PACKAGE CHD_0            ON UNIT   1020 AT TIME STEP     42, STRESS PERIOD      3

 HEAD WILL BE SAVED ON UNIT 1021 AT END OF TIME STEP   42, STRESS PERIOD    3


  VOLUME BUDGET FOR ENTIRE MODEL AT END OF TIME STEP   42, STRESS PERIOD   3
  ---------------------------------------------------------------------------------------------------

     CUMULATIVE VOLUME      L**3       RATES FOR THIS TIME STEP      L**3/T          PACKAGE NAME    
     ------------------                 ------------------------                     ----------------

           IN:                                      IN:
           ---                                      ---
              STO-SS =           0.0000                STO-SS =           0.0000     STORAGE                          
              STO-SY =  3308568766.6812                STO-SY =        2649.1258     STORAGE                          
      CSUB-CGELASTIC =     8825827.2358        CSUB-CGELASTIC =          43.8932     CSUB                             
        CSUB-ELASTIC =    23161358.3192          CSUB-ELASTIC =          18.0225     CSUB                             
      CSUB-INELASTIC =     6317392.7041        CSUB-INELASTIC =           0.0000     CSUB                             
      CSUB-WATERCOMP =    11820550.5155        CSUB-WATERCOMP =           9.0526     CSUB                             
                 WEL =           0.0000                   WEL =           0.0000     WEL_0                            
                 RCH =  1475317800.0000                   RCH =       39600.0000     RCH_0                            
                 CHD =           0.0000                   CHD =           0.0000     CHD_0                            

            TOTAL IN =  4834011695.4558              TOTAL IN =       42320.0940

          OUT:                                     OUT:
          ----                                     ----
              STO-SS =           0.0000                STO-SS =           0.0000     STORAGE                          
              STO-SY =   520020115.3944                STO-SY =       16557.7276     STORAGE                          
      CSUB-CGELASTIC =     8570576.8034        CSUB-CGELASTIC =          42.4885     CSUB                             
        CSUB-ELASTIC =     3306489.0076          CSUB-ELASTIC =         104.9142     CSUB                             
      CSUB-INELASTIC =           0.0000        CSUB-INELASTIC =           0.0000     CSUB                             
      CSUB-WATERCOMP =     1857650.2990        CSUB-WATERCOMP =          57.1590     CSUB                             
                 WEL =  3155760000.0000                   WEL =           0.0000     WEL_0                            
                 RCH =           0.0000                   RCH =           0.0000     RCH_0                            
                 CHD =  1144496863.9456                   CHD =       25557.8048     CHD_0                            

           TOTAL OUT =  4834011695.4500             TOTAL OUT =       42320.0940

            IN - OUT =       5.7945E-03              IN - OUT =       3.8162E-08

 PERCENT DISCREPANCY =           0.00     PERCENT DISCREPANCY =           0.00




         TIME SUMMARY AT END OF TIME STEP   42 IN STRESS PERIOD    3
                    SECONDS     MINUTES      HOURS       DAYS        YEARS
                    -----------------------------------------------------------
   TIME STEP LENGTH 3.15576E+07 5.25960E+05  8766.0      365.25      1.0000    
 STRESS PERIOD TIME 1.32542E+09 2.20903E+07 3.68172E+05  15340.      42.000    
         TOTAL TIME 3.21888E+09 5.36479E+07 8.94132E+05  37256.      102.00    


end timestep


start timestep kper="3" kstp="43" mode="normal"

 UBDSV1 SAVING           STO-SS ON UNIT   1020 AT TIME STEP     43, STRESS PERIOD      3
 UBDSV1 SAVING           STO-SY ON UNIT   1020 AT TIME STEP     43, STRESS PERIOD      3
 UBDSV1 SAVING     FLOW-JA-FACE ON UNIT   1020 AT TIME STEP     43, STRESS PERIOD      3
 UBDSV06 SAVING       DATA-SPDIS IN MODEL EX-GWF-CSUB-P04  PACKAGE NPF             CONNECTED TO MODEL EX-GWF-CSUB-P04  PACKAGE NPF              ON UNIT   1020 AT TIME STEP     43, STRESS PERIOD      3
 UBDSV1 SAVING  CSUB-CGELASTIC  ON UNIT   1020 AT TIME STEP     43, STRESS PERIOD      3
 UBDSV06 SAVING    CSUB-ELASTIC  IN MODEL EX-GWF-CSUB-P04  PACKAGE EX-GWF-CSUB-P04 CONNECTED TO MODEL EX-GWF-CSUB-P04  PACKAGE CSUB             ON UNIT   1020 AT TIME STEP     43, STRESS PERIOD      3
 UBDSV06 SAVING  CSUB-INELASTIC  IN MODEL EX-GWF-CSUB-P04  PACKAGE EX-GWF-CSUB-P04 CONNECTED TO MODEL EX-GWF-CSUB-P04  PACKAGE CSUB             ON UNIT   1020 AT TIME STEP     43, STRESS PERIOD      3
 UBDSV1 SAVING  CSUB-WATERCOMP  ON UNIT   1020 AT TIME STEP     43, STRESS PERIOD      3
 UBDSV06 SAVING              WEL IN MODEL EX-GWF-CSUB-P04  PACKAGE EX-GWF-CSUB-P04 CONNECTED TO MODEL EX-GWF-CSUB-P04  PACKAGE WEL_0            ON UNIT   1020 AT TIME STEP     43, STRESS PERIOD      3
 UBDSV06 SAVING              RCH IN MODEL EX-GWF-CSUB-P04  PACKAGE EX-GWF-CSUB-P04 CONNECTED TO MODEL EX-GWF-CSUB-P04  PACKAGE RCH_0            ON UNIT   1020 AT TIME STEP     43, STRESS PERIOD      3
 UBDSV06 SAVING              CHD IN MODEL EX-GWF-CSUB-P04  PACKAGE EX-GWF-CSUB-P04 CONNECTED TO MODEL EX-GWF-CSUB-P04  PACKAGE CHD_0            ON UNIT   1020 AT TIME STEP     43, STRESS PERIOD      3

 HEAD WILL BE SAVED ON UNIT 1021 AT END OF TIME STEP   43, STRESS PERIOD    3


  VOLUME BUDGET FOR ENTIRE MODEL AT END OF TIME STEP   43, STRESS PERIOD   3
  ---------------------------------------------------------------------------------------------------

     CUMULATIVE VOLUME      L**3       RATES FOR THIS TIME STEP      L**3/T          PACKAGE NAME    
     ------------------                 ------------------------                     ----------------

           IN:                                      IN:
           ---                                      ---
              STO-SS =           0.0000                STO-SS =           0.0000     STORAGE                          
              STO-SY =  3309473235.8240                STO-SY =        2476.3016     STORAGE                          
      CSUB-CGELASTIC =     8841542.7702        CSUB-CGELASTIC =          43.0268     CSUB                             
        CSUB-ELASTIC =    23167503.4183          CSUB-ELASTIC =          16.8244     CSUB                             
      CSUB-INELASTIC =     6317392.7041        CSUB-INELASTIC =           0.0000     CSUB                             
      CSUB-WATERCOMP =    11823637.4047        CSUB-WATERCOMP =           8.4514     CSUB                             
                 WEL =           0.0000                   WEL =           0.0000     WEL_0                            
                 RCH =  1489781700.0000                   RCH =       39600.0000     RCH_0                            
                 CHD =           0.0000                   CHD =           0.0000     CHD_0                            

            TOTAL IN =  4849405012.1213              TOTAL IN =       42144.6041

          OUT:                                     OUT:
          ----                                     ----
              STO-SS =           0.0000                STO-SS =           0.0000     STORAGE                          
              STO-SY =   525991200.5162                STO-SY =       16347.9401     STORAGE                          
      CSUB-CGELASTIC =     8585791.6033        CSUB-CGELASTIC =          41.6559     CSUB                             
        CSUB-ELASTIC =     3344342.9828          CSUB-ELASTIC =         103.6385     CSUB                             
      CSUB-INELASTIC =           0.0000        CSUB-INELASTIC =           0.0000     CSUB                             
      CSUB-WATERCOMP =     1878267.8356        CSUB-WATERCOMP =          56.4477     CSUB                             
                 WEL =  3155760000.0000                   WEL =           0.0000     WEL_0                            
                 RCH =           0.0000                   RCH =           0.0000     RCH_0                            
                 CHD =  1153845409.1775                   CHD =       25594.9219     CHD_0                            

           TOTAL OUT =  4849405012.1154             TOTAL OUT =       42144.6041

            IN - OUT =       5.8212E-03              IN - OUT =       7.3676E-08

 PERCENT DISCREPANCY =           0.00     PERCENT DISCREPANCY =           0.00




         TIME SUMMARY AT END OF TIME STEP   43 IN STRESS PERIOD    3
                    SECONDS     MINUTES      HOURS       DAYS        YEARS
                    -----------------------------------------------------------
   TIME STEP LENGTH 3.15576E+07 5.25960E+05  8766.0      365.25      1.0000    
 STRESS PERIOD TIME 1.35698E+09 2.26163E+07 3.76938E+05  15706.      43.000    
         TOTAL TIME 3.25043E+09 5.41739E+07 9.02898E+05  37621.      103.00    


end timestep


start timestep kper="3" kstp="44" mode="normal"

 UBDSV1 SAVING           STO-SS ON UNIT   1020 AT TIME STEP     44, STRESS PERIOD      3
 UBDSV1 SAVING           STO-SY ON UNIT   1020 AT TIME STEP     44, STRESS PERIOD      3
 UBDSV1 SAVING     FLOW-JA-FACE ON UNIT   1020 AT TIME STEP     44, STRESS PERIOD      3
 UBDSV06 SAVING       DATA-SPDIS IN MODEL EX-GWF-CSUB-P04  PACKAGE NPF             CONNECTED TO MODEL EX-GWF-CSUB-P04  PACKAGE NPF              ON UNIT   1020 AT TIME STEP     44, STRESS PERIOD      3
 UBDSV1 SAVING  CSUB-CGELASTIC  ON UNIT   1020 AT TIME STEP     44, STRESS PERIOD      3
 UBDSV06 SAVING    CSUB-ELASTIC  IN MODEL EX-GWF-CSUB-P04  PACKAGE EX-GWF-CSUB-P04 CONNECTED TO MODEL EX-GWF-CSUB-P04  PACKAGE CSUB             ON UNIT   1020 AT TIME STEP     44, STRESS PERIOD      3
 UBDSV06 SAVING  CSUB-INELASTIC  IN MODEL EX-GWF-CSUB-P04  PACKAGE EX-GWF-CSUB-P04 CONNECTED TO MODEL EX-GWF-CSUB-P04  PACKAGE CSUB             ON UNIT   1020 AT TIME STEP     44, STRESS PERIOD      3
 UBDSV1 SAVING  CSUB-WATERCOMP  ON UNIT   1020 AT TIME STEP     44, STRESS PERIOD      3
 UBDSV06 SAVING              WEL IN MODEL EX-GWF-CSUB-P04  PACKAGE EX-GWF-CSUB-P04 CONNECTED TO MODEL EX-GWF-CSUB-P04  PACKAGE WEL_0            ON UNIT   1020 AT TIME STEP     44, STRESS PERIOD      3
 UBDSV06 SAVING              RCH IN MODEL EX-GWF-CSUB-P04  PACKAGE EX-GWF-CSUB-P04 CONNECTED TO MODEL EX-GWF-CSUB-P04  PACKAGE RCH_0            ON UNIT   1020 AT TIME STEP     44, STRESS PERIOD      3
 UBDSV06 SAVING              CHD IN MODEL EX-GWF-CSUB-P04  PACKAGE EX-GWF-CSUB-P04 CONNECTED TO MODEL EX-GWF-CSUB-P04  PACKAGE CHD_0            ON UNIT   1020 AT TIME STEP     44, STRESS PERIOD      3

 HEAD WILL BE SAVED ON UNIT 1021 AT END OF TIME STEP   44, STRESS PERIOD    3


  VOLUME BUDGET FOR ENTIRE MODEL AT END OF TIME STEP   44, STRESS PERIOD   3
  ---------------------------------------------------------------------------------------------------

     CUMULATIVE VOLUME      L**3       RATES FOR THIS TIME STEP      L**3/T          PACKAGE NAME    
     ------------------                 ------------------------                     ----------------

           IN:                                      IN:
           ---                                      ---
              STO-SS =           0.0000                STO-SS =           0.0000     STORAGE                          
              STO-SY =  3310317270.7303                STO-SY =        2310.8416     STORAGE                          
      CSUB-CGELASTIC =     8856953.7150        CSUB-CGELASTIC =          42.1929     CSUB                             
        CSUB-ELASTIC =    23173230.2642          CSUB-ELASTIC =          15.6792     CSUB                             
      CSUB-INELASTIC =     6317392.7041        CSUB-INELASTIC =           0.0000     CSUB                             
      CSUB-WATERCOMP =    11826514.0298        CSUB-WATERCOMP =           7.8758     CSUB                             
                 WEL =           0.0000                   WEL =           0.0000     WEL_0                            
                 RCH =  1504245600.0000                   RCH =       39600.0000     RCH_0                            
                 CHD =           0.0000                   CHD =           0.0000     CHD_0                            

            TOTAL IN =  4864736961.4433              TOTAL IN =       41976.5895

          OUT:                                     OUT:
          ----                                     ----
              STO-SS =           0.0000                STO-SS =           0.0000     STORAGE                          
              STO-SY =   531888142.2701                STO-SY =       16144.9466     STORAGE                          
      CSUB-CGELASTIC =     8600713.8076        CSUB-CGELASTIC =          40.8548     CSUB                             
        CSUB-ELASTIC =     3381746.8240          CSUB-ELASTIC =         102.4061     CSUB                             
      CSUB-INELASTIC =           0.0000        CSUB-INELASTIC =           0.0000     CSUB                             
      CSUB-WATERCOMP =     1898633.9913        CSUB-WATERCOMP =          55.7595     CSUB                             
                 WEL =  3155760000.0000                   WEL =           0.0000     WEL_0                            
                 RCH =           0.0000                   RCH =           0.0000     RCH_0                            
                 CHD =  1163207724.5445                   CHD =       25632.6225     CHD_0                            

           TOTAL OUT =  4864736961.4375             TOTAL OUT =       41976.5895

            IN - OUT =       5.8136E-03              IN - OUT =      -2.3319E-08

 PERCENT DISCREPANCY =           0.00     PERCENT DISCREPANCY =          -0.00




         TIME SUMMARY AT END OF TIME STEP   44 IN STRESS PERIOD    3
                    SECONDS     MINUTES      HOURS       DAYS        YEARS
                    -----------------------------------------------------------
   TIME STEP LENGTH 3.15576E+07 5.25960E+05  8766.0      365.25      1.0000    
 STRESS PERIOD TIME 1.38853E+09 2.31422E+07 3.85704E+05  16071.      44.000    
         TOTAL TIME 3.28199E+09 5.46998E+07 9.11664E+05  37986.      104.00    


end timestep


start timestep kper="3" kstp="45" mode="normal"

 UBDSV1 SAVING           STO-SS ON UNIT   1020 AT TIME STEP     45, STRESS PERIOD      3
 UBDSV1 SAVING           STO-SY ON UNIT   1020 AT TIME STEP     45, STRESS PERIOD      3
 UBDSV1 SAVING     FLOW-JA-FACE ON UNIT   1020 AT TIME STEP     45, STRESS PERIOD      3
 UBDSV06 SAVING       DATA-SPDIS IN MODEL EX-GWF-CSUB-P04  PACKAGE NPF             CONNECTED TO MODEL EX-GWF-CSUB-P04  PACKAGE NPF              ON UNIT   1020 AT TIME STEP     45, STRESS PERIOD      3
 UBDSV1 SAVING  CSUB-CGELASTIC  ON UNIT   1020 AT TIME STEP     45, STRESS PERIOD      3
 UBDSV06 SAVING    CSUB-ELASTIC  IN MODEL EX-GWF-CSUB-P04  PACKAGE EX-GWF-CSUB-P04 CONNECTED TO MODEL EX-GWF-CSUB-P04  PACKAGE CSUB             ON UNIT   1020 AT TIME STEP     45, STRESS PERIOD      3
 UBDSV06 SAVING  CSUB-INELASTIC  IN MODEL EX-GWF-CSUB-P04  PACKAGE EX-GWF-CSUB-P04 CONNECTED TO MODEL EX-GWF-CSUB-P04  PACKAGE CSUB             ON UNIT   1020 AT TIME STEP     45, STRESS PERIOD      3
 UBDSV1 SAVING  CSUB-WATERCOMP  ON UNIT   1020 AT TIME STEP     45, STRESS PERIOD      3
 UBDSV06 SAVING              WEL IN MODEL EX-GWF-CSUB-P04  PACKAGE EX-GWF-CSUB-P04 CONNECTED TO MODEL EX-GWF-CSUB-P04  PACKAGE WEL_0            ON UNIT   1020 AT TIME STEP     45, STRESS PERIOD      3
 UBDSV06 SAVING              RCH IN MODEL EX-GWF-CSUB-P04  PACKAGE EX-GWF-CSUB-P04 CONNECTED TO MODEL EX-GWF-CSUB-P04  PACKAGE RCH_0            ON UNIT   1020 AT TIME STEP     45, STRESS PERIOD      3
 UBDSV06 SAVING              CHD IN MODEL EX-GWF-CSUB-P04  PACKAGE EX-GWF-CSUB-P04 CONNECTED TO MODEL EX-GWF-CSUB-P04  PACKAGE CHD_0            ON UNIT   1020 AT TIME STEP     45, STRESS PERIOD      3

 HEAD WILL BE SAVED ON UNIT 1021 AT END OF TIME STEP   45, STRESS PERIOD    3


  VOLUME BUDGET FOR ENTIRE MODEL AT END OF TIME STEP   45, STRESS PERIOD   3
  ---------------------------------------------------------------------------------------------------

     CUMULATIVE VOLUME      L**3       RATES FOR THIS TIME STEP      L**3/T          PACKAGE NAME    
     ------------------                 ------------------------                     ----------------

           IN:                                      IN:
           ---                                      ---
              STO-SS =           0.0000                STO-SS =           0.0000     STORAGE                          
              STO-SY =  3311103415.8625                STO-SY =        2152.3481     STORAGE                          
      CSUB-CGELASTIC =     8872071.7552        CSUB-CGELASTIC =          41.3909     CSUB                             
        CSUB-ELASTIC =    23178557.6792          CSUB-ELASTIC =          14.5857     CSUB                             
      CSUB-INELASTIC =     6317392.7041        CSUB-INELASTIC =           0.0000     CSUB                             
      CSUB-WATERCOMP =    11829189.8044        CSUB-WATERCOMP =           7.3259     CSUB                             
                 WEL =           0.0000                   WEL =           0.0000     WEL_0                            
                 RCH =  1518709500.0000                   RCH =       39600.0000     RCH_0                            
                 CHD =           0.0000                   CHD =           0.0000     CHD_0                            

            TOTAL IN =  4880010127.8055              TOTAL IN =       41815.6505

          OUT:                                     OUT:
          ----                                     ----
              STO-SS =           0.0000                STO-SS =           0.0000     STORAGE                          
              STO-SY =   537713304.8060                STO-SY =       15948.4258     STORAGE                          
      CSUB-CGELASTIC =     8615354.7632        CSUB-CGELASTIC =          40.0848     CSUB                             
        CSUB-ELASTIC =     3418716.1168          CSUB-ELASTIC =         101.2164     CSUB                             
      CSUB-INELASTIC =           0.0000        CSUB-INELASTIC =           0.0000     CSUB                             
      CSUB-WATERCOMP =     1918757.3783        CSUB-WATERCOMP =          55.0948     CSUB                             
                 WEL =  3155760000.0000                   WEL =           0.0000     WEL_0                            
                 RCH =           0.0000                   RCH =           0.0000     RCH_0                            
                 CHD =  1172583994.7353                   CHD =       25670.8287     CHD_0                            

           TOTAL OUT =  4880010127.7996             TOTAL OUT =       41815.6505

            IN - OUT =       5.8117E-03              IN - OUT =      -3.6525E-09

 PERCENT DISCREPANCY =           0.00     PERCENT DISCREPANCY =          -0.00




         TIME SUMMARY AT END OF TIME STEP   45 IN STRESS PERIOD    3
                    SECONDS     MINUTES      HOURS       DAYS        YEARS
                    -----------------------------------------------------------
   TIME STEP LENGTH 3.15576E+07 5.25960E+05  8766.0      365.25      1.0000    
 STRESS PERIOD TIME 1.42009E+09 2.36682E+07 3.94470E+05  16436.      45.000    
         TOTAL TIME 3.31355E+09 5.52258E+07 9.20430E+05  38351.      105.00    


end timestep


start timestep kper="3" kstp="46" mode="normal"

 UBDSV1 SAVING           STO-SS ON UNIT   1020 AT TIME STEP     46, STRESS PERIOD      3
 UBDSV1 SAVING           STO-SY ON UNIT   1020 AT TIME STEP     46, STRESS PERIOD      3
 UBDSV1 SAVING     FLOW-JA-FACE ON UNIT   1020 AT TIME STEP     46, STRESS PERIOD      3
 UBDSV06 SAVING       DATA-SPDIS IN MODEL EX-GWF-CSUB-P04  PACKAGE NPF             CONNECTED TO MODEL EX-GWF-CSUB-P04  PACKAGE NPF              ON UNIT   1020 AT TIME STEP     46, STRESS PERIOD      3
 UBDSV1 SAVING  CSUB-CGELASTIC  ON UNIT   1020 AT TIME STEP     46, STRESS PERIOD      3
 UBDSV06 SAVING    CSUB-ELASTIC  IN MODEL EX-GWF-CSUB-P04  PACKAGE EX-GWF-CSUB-P04 CONNECTED TO MODEL EX-GWF-CSUB-P04  PACKAGE CSUB             ON UNIT   1020 AT TIME STEP     46, STRESS PERIOD      3
 UBDSV06 SAVING  CSUB-INELASTIC  IN MODEL EX-GWF-CSUB-P04  PACKAGE EX-GWF-CSUB-P04 CONNECTED TO MODEL EX-GWF-CSUB-P04  PACKAGE CSUB             ON UNIT   1020 AT TIME STEP     46, STRESS PERIOD      3
 UBDSV1 SAVING  CSUB-WATERCOMP  ON UNIT   1020 AT TIME STEP     46, STRESS PERIOD      3
 UBDSV06 SAVING              WEL IN MODEL EX-GWF-CSUB-P04  PACKAGE EX-GWF-CSUB-P04 CONNECTED TO MODEL EX-GWF-CSUB-P04  PACKAGE WEL_0            ON UNIT   1020 AT TIME STEP     46, STRESS PERIOD      3
 UBDSV06 SAVING              RCH IN MODEL EX-GWF-CSUB-P04  PACKAGE EX-GWF-CSUB-P04 CONNECTED TO MODEL EX-GWF-CSUB-P04  PACKAGE RCH_0            ON UNIT   1020 AT TIME STEP     46, STRESS PERIOD      3
 UBDSV06 SAVING              CHD IN MODEL EX-GWF-CSUB-P04  PACKAGE EX-GWF-CSUB-P04 CONNECTED TO MODEL EX-GWF-CSUB-P04  PACKAGE CHD_0            ON UNIT   1020 AT TIME STEP     46, STRESS PERIOD      3

 HEAD WILL BE SAVED ON UNIT 1021 AT END OF TIME STEP   46, STRESS PERIOD    3


  VOLUME BUDGET FOR ENTIRE MODEL AT END OF TIME STEP   46, STRESS PERIOD   3
  ---------------------------------------------------------------------------------------------------

     CUMULATIVE VOLUME      L**3       RATES FOR THIS TIME STEP      L**3/T          PACKAGE NAME    
     ------------------                 ------------------------                     ----------------

           IN:                                      IN:
           ---                                      ---
              STO-SS =           0.0000                STO-SS =           0.0000     STORAGE                          
              STO-SY =  3311834079.9019                STO-SY =        2000.4491     STORAGE                          
      CSUB-CGELASTIC =     8886907.8343        CSUB-CGELASTIC =          40.6190     CSUB                             
        CSUB-ELASTIC =    23183504.1271          CSUB-ELASTIC =          13.5426     CSUB                             
      CSUB-INELASTIC =     6317392.7041        CSUB-INELASTIC =           0.0000     CSUB                             
      CSUB-WATERCOMP =    11831674.1112        CSUB-WATERCOMP =           6.8017     CSUB                             
                 WEL =           0.0000                   WEL =           0.0000     WEL_0                            
                 RCH =  1533173400.0000                   RCH =       39600.0000     RCH_0                            
                 CHD =           0.0000                   CHD =           0.0000     CHD_0                            

            TOTAL IN =  4895226958.6786              TOTAL IN =       41661.4124

          OUT:                                     OUT:
          ----                                     ----
              STO-SS =           0.0000                STO-SS =           0.0000     STORAGE                          
              STO-SY =   543468942.2437                STO-SY =       15758.0765     STORAGE                          
      CSUB-CGELASTIC =     8629725.0940        CSUB-CGELASTIC =          39.3438     CSUB                             
        CSUB-ELASTIC =     3455266.3864          CSUB-ELASTIC =         100.0692     CSUB                             
      CSUB-INELASTIC =           0.0000        CSUB-INELASTIC =           0.0000     CSUB                             
      CSUB-WATERCOMP =     1938646.6763        CSUB-WATERCOMP =          54.4539     CSUB                             
                 WEL =  3155760000.0000                   WEL =           0.0000     WEL_0                            
                 RCH =           0.0000                   RCH =           0.0000     RCH_0                            
                 CHD =  1181974378.2723                   CHD =       25709.4690     CHD_0                            

           TOTAL OUT =  4895226958.6728             TOTAL OUT =       41661.4124

            IN - OUT =       5.8413E-03              IN - OUT =       8.1513E-08

 PERCENT DISCREPANCY =           0.00     PERCENT DISCREPANCY =           0.00




         TIME SUMMARY AT END OF TIME STEP   46 IN STRESS PERIOD    3
                    SECONDS     MINUTES      HOURS       DAYS        YEARS
                    -----------------------------------------------------------
   TIME STEP LENGTH 3.15576E+07 5.25960E+05  8766.0      365.25      1.0000    
 STRESS PERIOD TIME 1.45165E+09 2.41942E+07 4.03236E+05  16802.      46.000    
         TOTAL TIME 3.34511E+09 5.57518E+07 9.29196E+05  38716.      106.00    


end timestep


start timestep kper="3" kstp="47" mode="normal"

 UBDSV1 SAVING           STO-SS ON UNIT   1020 AT TIME STEP     47, STRESS PERIOD      3
 UBDSV1 SAVING           STO-SY ON UNIT   1020 AT TIME STEP     47, STRESS PERIOD      3
 UBDSV1 SAVING     FLOW-JA-FACE ON UNIT   1020 AT TIME STEP     47, STRESS PERIOD      3
 UBDSV06 SAVING       DATA-SPDIS IN MODEL EX-GWF-CSUB-P04  PACKAGE NPF             CONNECTED TO MODEL EX-GWF-CSUB-P04  PACKAGE NPF              ON UNIT   1020 AT TIME STEP     47, STRESS PERIOD      3
 UBDSV1 SAVING  CSUB-CGELASTIC  ON UNIT   1020 AT TIME STEP     47, STRESS PERIOD      3
 UBDSV06 SAVING    CSUB-ELASTIC  IN MODEL EX-GWF-CSUB-P04  PACKAGE EX-GWF-CSUB-P04 CONNECTED TO MODEL EX-GWF-CSUB-P04  PACKAGE CSUB             ON UNIT   1020 AT TIME STEP     47, STRESS PERIOD      3
 UBDSV06 SAVING  CSUB-INELASTIC  IN MODEL EX-GWF-CSUB-P04  PACKAGE EX-GWF-CSUB-P04 CONNECTED TO MODEL EX-GWF-CSUB-P04  PACKAGE CSUB             ON UNIT   1020 AT TIME STEP     47, STRESS PERIOD      3
 UBDSV1 SAVING  CSUB-WATERCOMP  ON UNIT   1020 AT TIME STEP     47, STRESS PERIOD      3
 UBDSV06 SAVING              WEL IN MODEL EX-GWF-CSUB-P04  PACKAGE EX-GWF-CSUB-P04 CONNECTED TO MODEL EX-GWF-CSUB-P04  PACKAGE WEL_0            ON UNIT   1020 AT TIME STEP     47, STRESS PERIOD      3
 UBDSV06 SAVING              RCH IN MODEL EX-GWF-CSUB-P04  PACKAGE EX-GWF-CSUB-P04 CONNECTED TO MODEL EX-GWF-CSUB-P04  PACKAGE RCH_0            ON UNIT   1020 AT TIME STEP     47, STRESS PERIOD      3
 UBDSV06 SAVING              CHD IN MODEL EX-GWF-CSUB-P04  PACKAGE EX-GWF-CSUB-P04 CONNECTED TO MODEL EX-GWF-CSUB-P04  PACKAGE CHD_0            ON UNIT   1020 AT TIME STEP     47, STRESS PERIOD      3

 HEAD WILL BE SAVED ON UNIT 1021 AT END OF TIME STEP   47, STRESS PERIOD    3


  VOLUME BUDGET FOR ENTIRE MODEL AT END OF TIME STEP   47, STRESS PERIOD   3
  ---------------------------------------------------------------------------------------------------

     CUMULATIVE VOLUME      L**3       RATES FOR THIS TIME STEP      L**3/T          PACKAGE NAME    
     ------------------                 ------------------------                     ----------------

           IN:                                      IN:
           ---                                      ---
              STO-SS =           0.0000                STO-SS =           0.0000     STORAGE                          
              STO-SY =  3312512017.7998                STO-SY =        1856.0928     STORAGE                          
      CSUB-CGELASTIC =     8901474.3815        CSUB-CGELASTIC =          39.8810     CSUB                             
        CSUB-ELASTIC =    23188089.4198          CSUB-ELASTIC =          12.5538     CSUB                             
      CSUB-INELASTIC =     6317392.7041        CSUB-INELASTIC =           0.0000     CSUB                             
      CSUB-WATERCOMP =    11833976.8179        CSUB-WATERCOMP =           6.3045     CSUB                             
                 WEL =           0.0000                   WEL =           0.0000     WEL_0                            
                 RCH =  1547637300.0000                   RCH =       39600.0000     RCH_0                            
                 CHD =           0.0000                   CHD =           0.0000     CHD_0                            

            TOTAL IN =  4910390251.1231              TOTAL IN =       41514.8322

          OUT:                                     OUT:
          ----                                     ----
              STO-SS =           0.0000                STO-SS =           0.0000     STORAGE                          
              STO-SY =   549157678.6779                STO-SY =       15574.9115     STORAGE                          
      CSUB-CGELASTIC =     8643836.9267        CSUB-CGELASTIC =          38.6361     CSUB                             
        CSUB-ELASTIC =     3491414.7779          CSUB-ELASTIC =          98.9689     CSUB                             
      CSUB-INELASTIC =           0.0000        CSUB-INELASTIC =           0.0000     CSUB                             
      CSUB-WATERCOMP =     1958311.1408        CSUB-WATERCOMP =          53.8384     CSUB                             
                 WEL =  3155760000.0000                   WEL =           0.0000     WEL_0                            
                 RCH =           0.0000                   RCH =           0.0000     RCH_0                            
                 CHD =  1191379009.5940                   CHD =       25748.4773     CHD_0                            

           TOTAL OUT =  4910390251.1172             TOTAL OUT =       41514.8322

            IN - OUT =       5.8327E-03              IN - OUT =      -2.6412E-08

 PERCENT DISCREPANCY =           0.00     PERCENT DISCREPANCY =          -0.00




         TIME SUMMARY AT END OF TIME STEP   47 IN STRESS PERIOD    3
                    SECONDS     MINUTES      HOURS       DAYS        YEARS
                    -----------------------------------------------------------
   TIME STEP LENGTH 3.15576E+07 5.25960E+05  8766.0      365.25      1.0000    
 STRESS PERIOD TIME 1.48321E+09 2.47201E+07 4.12002E+05  17167.      47.000    
         TOTAL TIME 3.37666E+09 5.62777E+07 9.37962E+05  39082.      107.00    


end timestep


start timestep kper="3" kstp="48" mode="normal"

 UBDSV1 SAVING           STO-SS ON UNIT   1020 AT TIME STEP     48, STRESS PERIOD      3
 UBDSV1 SAVING           STO-SY ON UNIT   1020 AT TIME STEP     48, STRESS PERIOD      3
 UBDSV1 SAVING     FLOW-JA-FACE ON UNIT   1020 AT TIME STEP     48, STRESS PERIOD      3
 UBDSV06 SAVING       DATA-SPDIS IN MODEL EX-GWF-CSUB-P04  PACKAGE NPF             CONNECTED TO MODEL EX-GWF-CSUB-P04  PACKAGE NPF              ON UNIT   1020 AT TIME STEP     48, STRESS PERIOD      3
 UBDSV1 SAVING  CSUB-CGELASTIC  ON UNIT   1020 AT TIME STEP     48, STRESS PERIOD      3
 UBDSV06 SAVING    CSUB-ELASTIC  IN MODEL EX-GWF-CSUB-P04  PACKAGE EX-GWF-CSUB-P04 CONNECTED TO MODEL EX-GWF-CSUB-P04  PACKAGE CSUB             ON UNIT   1020 AT TIME STEP     48, STRESS PERIOD      3
 UBDSV06 SAVING  CSUB-INELASTIC  IN MODEL EX-GWF-CSUB-P04  PACKAGE EX-GWF-CSUB-P04 CONNECTED TO MODEL EX-GWF-CSUB-P04  PACKAGE CSUB             ON UNIT   1020 AT TIME STEP     48, STRESS PERIOD      3
 UBDSV1 SAVING  CSUB-WATERCOMP  ON UNIT   1020 AT TIME STEP     48, STRESS PERIOD      3
 UBDSV06 SAVING              WEL IN MODEL EX-GWF-CSUB-P04  PACKAGE EX-GWF-CSUB-P04 CONNECTED TO MODEL EX-GWF-CSUB-P04  PACKAGE WEL_0            ON UNIT   1020 AT TIME STEP     48, STRESS PERIOD      3
 UBDSV06 SAVING              RCH IN MODEL EX-GWF-CSUB-P04  PACKAGE EX-GWF-CSUB-P04 CONNECTED TO MODEL EX-GWF-CSUB-P04  PACKAGE RCH_0            ON UNIT   1020 AT TIME STEP     48, STRESS PERIOD      3
 UBDSV06 SAVING              CHD IN MODEL EX-GWF-CSUB-P04  PACKAGE EX-GWF-CSUB-P04 CONNECTED TO MODEL EX-GWF-CSUB-P04  PACKAGE CHD_0            ON UNIT   1020 AT TIME STEP     48, STRESS PERIOD      3

 HEAD WILL BE SAVED ON UNIT 1021 AT END OF TIME STEP   48, STRESS PERIOD    3


  VOLUME BUDGET FOR ENTIRE MODEL AT END OF TIME STEP   48, STRESS PERIOD   3
  ---------------------------------------------------------------------------------------------------

     CUMULATIVE VOLUME      L**3       RATES FOR THIS TIME STEP      L**3/T          PACKAGE NAME    
     ------------------                 ------------------------                     ----------------

           IN:                                      IN:
           ---                                      ---
              STO-SS =           0.0000                STO-SS =           0.0000     STORAGE                          
              STO-SY =  3313140170.0414                STO-SY =        1719.7871     STORAGE                          
      CSUB-CGELASTIC =     8915784.1764        CSUB-CGELASTIC =          39.1781     CSUB                             
        CSUB-ELASTIC =    23192333.8527          CSUB-ELASTIC =          11.6206     CSUB                             
      CSUB-INELASTIC =     6317392.7041        CSUB-INELASTIC =           0.0000     CSUB                             
      CSUB-WATERCOMP =    11836108.3035        CSUB-WATERCOMP =           5.8357     CSUB                             
                 WEL =           0.0000                   WEL =           0.0000     WEL_0                            
                 RCH =  1562101200.0000                   RCH =       39600.0000     RCH_0                            
                 CHD =           0.0000                   CHD =           0.0000     CHD_0                            

            TOTAL IN =  4925502989.0782              TOTAL IN =       41376.4215

          OUT:                                     OUT:
          ----                                     ----
              STO-SS =           0.0000                STO-SS =           0.0000     STORAGE                          
              STO-SY =   554782345.5478                STO-SY =       15399.4986     STORAGE                          
      CSUB-CGELASTIC =     8657702.7537        CSUB-CGELASTIC =          37.9626     CSUB                             
        CSUB-ELASTIC =     3527179.1690          CSUB-ELASTIC =          97.9176     CSUB                             
      CSUB-INELASTIC =           0.0000        CSUB-INELASTIC =           0.0000     CSUB                             
      CSUB-WATERCOMP =     1977760.6215        CSUB-WATERCOMP =          53.2498     CSUB                             
                 WEL =  3155760000.0000                   WEL =           0.0000     WEL_0                            
                 RCH =           0.0000                   RCH =           0.0000     RCH_0                            
                 CHD =  1200798000.9804                   CHD =       25787.7930     CHD_0                            

           TOTAL OUT =  4925502989.0723             TOTAL OUT =       41376.4215

            IN - OUT =       5.8270E-03              IN - OUT =      -1.5643E-08

 PERCENT DISCREPANCY =           0.00     PERCENT DISCREPANCY =          -0.00




         TIME SUMMARY AT END OF TIME STEP   48 IN STRESS PERIOD    3
                    SECONDS     MINUTES      HOURS       DAYS        YEARS
                    -----------------------------------------------------------
   TIME STEP LENGTH 3.15576E+07 5.25960E+05  8766.0      365.25      1.0000    
 STRESS PERIOD TIME 1.51476E+09 2.52461E+07 4.20768E+05  17532.      48.000    
         TOTAL TIME 3.40822E+09 5.68037E+07 9.46728E+05  39447.      108.00    


end timestep


start timestep kper="3" kstp="49" mode="normal"

 UBDSV1 SAVING           STO-SS ON UNIT   1020 AT TIME STEP     49, STRESS PERIOD      3
 UBDSV1 SAVING           STO-SY ON UNIT   1020 AT TIME STEP     49, STRESS PERIOD      3
 UBDSV1 SAVING     FLOW-JA-FACE ON UNIT   1020 AT TIME STEP     49, STRESS PERIOD      3
 UBDSV06 SAVING       DATA-SPDIS IN MODEL EX-GWF-CSUB-P04  PACKAGE NPF             CONNECTED TO MODEL EX-GWF-CSUB-P04  PACKAGE NPF              ON UNIT   1020 AT TIME STEP     49, STRESS PERIOD      3
 UBDSV1 SAVING  CSUB-CGELASTIC  ON UNIT   1020 AT TIME STEP     49, STRESS PERIOD      3
 UBDSV06 SAVING    CSUB-ELASTIC  IN MODEL EX-GWF-CSUB-P04  PACKAGE EX-GWF-CSUB-P04 CONNECTED TO MODEL EX-GWF-CSUB-P04  PACKAGE CSUB             ON UNIT   1020 AT TIME STEP     49, STRESS PERIOD      3
 UBDSV06 SAVING  CSUB-INELASTIC  IN MODEL EX-GWF-CSUB-P04  PACKAGE EX-GWF-CSUB-P04 CONNECTED TO MODEL EX-GWF-CSUB-P04  PACKAGE CSUB             ON UNIT   1020 AT TIME STEP     49, STRESS PERIOD      3
 UBDSV1 SAVING  CSUB-WATERCOMP  ON UNIT   1020 AT TIME STEP     49, STRESS PERIOD      3
 UBDSV06 SAVING              WEL IN MODEL EX-GWF-CSUB-P04  PACKAGE EX-GWF-CSUB-P04 CONNECTED TO MODEL EX-GWF-CSUB-P04  PACKAGE WEL_0            ON UNIT   1020 AT TIME STEP     49, STRESS PERIOD      3
 UBDSV06 SAVING              RCH IN MODEL EX-GWF-CSUB-P04  PACKAGE EX-GWF-CSUB-P04 CONNECTED TO MODEL EX-GWF-CSUB-P04  PACKAGE RCH_0            ON UNIT   1020 AT TIME STEP     49, STRESS PERIOD      3
 UBDSV06 SAVING              CHD IN MODEL EX-GWF-CSUB-P04  PACKAGE EX-GWF-CSUB-P04 CONNECTED TO MODEL EX-GWF-CSUB-P04  PACKAGE CHD_0            ON UNIT   1020 AT TIME STEP     49, STRESS PERIOD      3

 HEAD WILL BE SAVED ON UNIT 1021 AT END OF TIME STEP   49, STRESS PERIOD    3


  VOLUME BUDGET FOR ENTIRE MODEL AT END OF TIME STEP   49, STRESS PERIOD   3
  ---------------------------------------------------------------------------------------------------

     CUMULATIVE VOLUME      L**3       RATES FOR THIS TIME STEP      L**3/T          PACKAGE NAME    
     ------------------                 ------------------------                     ----------------

           IN:                                      IN:
           ---                                      ---
              STO-SS =           0.0000                STO-SS =           0.0000     STORAGE                          
              STO-SY =  3313721193.6787                STO-SY =        1590.7560     STORAGE                          
      CSUB-CGELASTIC =     8929848.5231        CSUB-CGELASTIC =          38.5061     CSUB                             
        CSUB-ELASTIC =    23196255.7415          CSUB-ELASTIC =          10.7375     CSUB                             
      CSUB-INELASTIC =     6317392.7041        CSUB-INELASTIC =           0.0000     CSUB                             
      CSUB-WATERCOMP =    11838077.8165        CSUB-WATERCOMP =           5.3922     CSUB                             
                 WEL =           0.0000                   WEL =           0.0000     WEL_0                            
                 RCH =  1576565100.0000                   RCH =       39600.0000     RCH_0                            
                 CHD =           0.0000                   CHD =           0.0000     CHD_0                            

            TOTAL IN =  4940567868.4639              TOTAL IN =       41245.3919

          OUT:                                     OUT:
          ----                                     ----
              STO-SS =           0.0000                STO-SS =           0.0000     STORAGE                          
              STO-SY =   560345510.9183                STO-SY =       15231.1167     STORAGE                          
      CSUB-CGELASTIC =     8671333.6055        CSUB-CGELASTIC =          37.3192     CSUB                             
        CSUB-ELASTIC =     3562575.6852          CSUB-ELASTIC =          96.9104     CSUB                             
      CSUB-INELASTIC =           0.0000        CSUB-INELASTIC =           0.0000     CSUB                             
      CSUB-WATERCOMP =     1997003.9141        CSUB-WATERCOMP =          52.6853     CSUB                             
                 WEL =  3155760000.0000                   WEL =           0.0000     WEL_0                            
                 RCH =           0.0000                   RCH =           0.0000     RCH_0                            
                 CHD =  1210231444.3350                   CHD =       25827.3603     CHD_0                            

           TOTAL OUT =  4940567868.4581             TOTAL OUT =       41245.3919

            IN - OUT =       5.8336E-03              IN - OUT =       1.7521E-08

 PERCENT DISCREPANCY =           0.00     PERCENT DISCREPANCY =           0.00




         TIME SUMMARY AT END OF TIME STEP   49 IN STRESS PERIOD    3
                    SECONDS     MINUTES      HOURS       DAYS        YEARS
                    -----------------------------------------------------------
   TIME STEP LENGTH 3.15576E+07 5.25960E+05  8766.0      365.25      1.0000    
 STRESS PERIOD TIME 1.54632E+09 2.57720E+07 4.29534E+05  17897.      49.000    
         TOTAL TIME 3.43978E+09 5.73296E+07 9.55494E+05  39812.      109.00    


end timestep


start timestep kper="3" kstp="50" mode="normal"

 UBDSV1 SAVING           STO-SS ON UNIT   1020 AT TIME STEP     50, STRESS PERIOD      3
 UBDSV1 SAVING           STO-SY ON UNIT   1020 AT TIME STEP     50, STRESS PERIOD      3
 UBDSV1 SAVING     FLOW-JA-FACE ON UNIT   1020 AT TIME STEP     50, STRESS PERIOD      3
 UBDSV06 SAVING       DATA-SPDIS IN MODEL EX-GWF-CSUB-P04  PACKAGE NPF             CONNECTED TO MODEL EX-GWF-CSUB-P04  PACKAGE NPF              ON UNIT   1020 AT TIME STEP     50, STRESS PERIOD      3
 UBDSV1 SAVING  CSUB-CGELASTIC  ON UNIT   1020 AT TIME STEP     50, STRESS PERIOD      3
 UBDSV06 SAVING    CSUB-ELASTIC  IN MODEL EX-GWF-CSUB-P04  PACKAGE EX-GWF-CSUB-P04 CONNECTED TO MODEL EX-GWF-CSUB-P04  PACKAGE CSUB             ON UNIT   1020 AT TIME STEP     50, STRESS PERIOD      3
 UBDSV06 SAVING  CSUB-INELASTIC  IN MODEL EX-GWF-CSUB-P04  PACKAGE EX-GWF-CSUB-P04 CONNECTED TO MODEL EX-GWF-CSUB-P04  PACKAGE CSUB             ON UNIT   1020 AT TIME STEP     50, STRESS PERIOD      3
 UBDSV1 SAVING  CSUB-WATERCOMP  ON UNIT   1020 AT TIME STEP     50, STRESS PERIOD      3
 UBDSV06 SAVING              WEL IN MODEL EX-GWF-CSUB-P04  PACKAGE EX-GWF-CSUB-P04 CONNECTED TO MODEL EX-GWF-CSUB-P04  PACKAGE WEL_0            ON UNIT   1020 AT TIME STEP     50, STRESS PERIOD      3
 UBDSV06 SAVING              RCH IN MODEL EX-GWF-CSUB-P04  PACKAGE EX-GWF-CSUB-P04 CONNECTED TO MODEL EX-GWF-CSUB-P04  PACKAGE RCH_0            ON UNIT   1020 AT TIME STEP     50, STRESS PERIOD      3
 UBDSV06 SAVING              CHD IN MODEL EX-GWF-CSUB-P04  PACKAGE EX-GWF-CSUB-P04 CONNECTED TO MODEL EX-GWF-CSUB-P04  PACKAGE CHD_0            ON UNIT   1020 AT TIME STEP     50, STRESS PERIOD      3

 HEAD WILL BE SAVED ON UNIT 1021 AT END OF TIME STEP   50, STRESS PERIOD    3


  VOLUME BUDGET FOR ENTIRE MODEL AT END OF TIME STEP   50, STRESS PERIOD   3
  ---------------------------------------------------------------------------------------------------

     CUMULATIVE VOLUME      L**3       RATES FOR THIS TIME STEP      L**3/T          PACKAGE NAME    
     ------------------                 ------------------------                     ----------------

           IN:                                      IN:
           ---                                      ---
              STO-SS =           0.0000                STO-SS =           0.0000     STORAGE                          
              STO-SY =  3314257945.8209                STO-SY =        1469.5473     STORAGE                          
      CSUB-CGELASTIC =     8943679.4718        CSUB-CGELASTIC =          37.8671     CSUB                             
        CSUB-ELASTIC =    23199873.2955          CSUB-ELASTIC =           9.9043     CSUB                             
      CSUB-INELASTIC =     6317392.7041        CSUB-INELASTIC =           0.0000     CSUB                             
      CSUB-WATERCOMP =    11839894.4215        CSUB-WATERCOMP =           4.9736     CSUB                             
                 WEL =           0.0000                   WEL =           0.0000     WEL_0                            
                 RCH =  1591029000.0000                   RCH =       39600.0000     RCH_0                            
                 CHD =           0.0000                   CHD =           0.0000     CHD_0                            

            TOTAL IN =  4955587785.7137              TOTAL IN =       41122.2923

          OUT:                                     OUT:
          ----                                     ----
              STO-SS =           0.0000                STO-SS =           0.0000     STORAGE                          
              STO-SY =   565849961.3487                STO-SY =       15070.3639     STORAGE                          
      CSUB-CGELASTIC =     8684741.2715        CSUB-CGELASTIC =          36.7082     CSUB                             
        CSUB-ELASTIC =     3597620.5542          CSUB-ELASTIC =          95.9476     CSUB                             
      CSUB-INELASTIC =           0.0000        CSUB-INELASTIC =           0.0000     CSUB                             
      CSUB-WATERCOMP =     2016049.7005        CSUB-WATERCOMP =          52.1445     CSUB                             
                 WEL =  3155760000.0000                   WEL =           0.0000     WEL_0                            
                 RCH =           0.0000                   RCH =           0.0000     RCH_0                            
                 CHD =  1219679412.8329                   CHD =       25867.1280     CHD_0                            

           TOTAL OUT =  4955587785.7079             TOTAL OUT =       41122.2923

            IN - OUT =       5.8670E-03              IN - OUT =       9.2507E-08

 PERCENT DISCREPANCY =           0.00     PERCENT DISCREPANCY =           0.00




         TIME SUMMARY AT END OF TIME STEP   50 IN STRESS PERIOD    3
                    SECONDS     MINUTES      HOURS       DAYS        YEARS
                    -----------------------------------------------------------
   TIME STEP LENGTH 3.15576E+07 5.25960E+05  8766.0      365.25      1.0000    
 STRESS PERIOD TIME 1.57788E+09 2.62980E+07 4.38300E+05  18262.      50.000    
         TOTAL TIME 3.47134E+09 5.78556E+07 9.64260E+05  40178.      110.00    


end timestep


start timestep kper="3" kstp="51" mode="normal"

 UBDSV1 SAVING           STO-SS ON UNIT   1020 AT TIME STEP     51, STRESS PERIOD      3
 UBDSV1 SAVING           STO-SY ON UNIT   1020 AT TIME STEP     51, STRESS PERIOD      3
 UBDSV1 SAVING     FLOW-JA-FACE ON UNIT   1020 AT TIME STEP     51, STRESS PERIOD      3
 UBDSV06 SAVING       DATA-SPDIS IN MODEL EX-GWF-CSUB-P04  PACKAGE NPF             CONNECTED TO MODEL EX-GWF-CSUB-P04  PACKAGE NPF              ON UNIT   1020 AT TIME STEP     51, STRESS PERIOD      3
 UBDSV1 SAVING  CSUB-CGELASTIC  ON UNIT   1020 AT TIME STEP     51, STRESS PERIOD      3
 UBDSV06 SAVING    CSUB-ELASTIC  IN MODEL EX-GWF-CSUB-P04  PACKAGE EX-GWF-CSUB-P04 CONNECTED TO MODEL EX-GWF-CSUB-P04  PACKAGE CSUB             ON UNIT   1020 AT TIME STEP     51, STRESS PERIOD      3
 UBDSV06 SAVING  CSUB-INELASTIC  IN MODEL EX-GWF-CSUB-P04  PACKAGE EX-GWF-CSUB-P04 CONNECTED TO MODEL EX-GWF-CSUB-P04  PACKAGE CSUB             ON UNIT   1020 AT TIME STEP     51, STRESS PERIOD      3
 UBDSV1 SAVING  CSUB-WATERCOMP  ON UNIT   1020 AT TIME STEP     51, STRESS PERIOD      3
 UBDSV06 SAVING              WEL IN MODEL EX-GWF-CSUB-P04  PACKAGE EX-GWF-CSUB-P04 CONNECTED TO MODEL EX-GWF-CSUB-P04  PACKAGE WEL_0            ON UNIT   1020 AT TIME STEP     51, STRESS PERIOD      3
 UBDSV06 SAVING              RCH IN MODEL EX-GWF-CSUB-P04  PACKAGE EX-GWF-CSUB-P04 CONNECTED TO MODEL EX-GWF-CSUB-P04  PACKAGE RCH_0            ON UNIT   1020 AT TIME STEP     51, STRESS PERIOD      3
 UBDSV06 SAVING              CHD IN MODEL EX-GWF-CSUB-P04  PACKAGE EX-GWF-CSUB-P04 CONNECTED TO MODEL EX-GWF-CSUB-P04  PACKAGE CHD_0            ON UNIT   1020 AT TIME STEP     51, STRESS PERIOD      3

 HEAD WILL BE SAVED ON UNIT 1021 AT END OF TIME STEP   51, STRESS PERIOD    3


  VOLUME BUDGET FOR ENTIRE MODEL AT END OF TIME STEP   51, STRESS PERIOD   3
  ---------------------------------------------------------------------------------------------------

     CUMULATIVE VOLUME      L**3       RATES FOR THIS TIME STEP      L**3/T          PACKAGE NAME    
     ------------------                 ------------------------                     ----------------

           IN:                                      IN:
           ---                                      ---
              STO-SS =           0.0000                STO-SS =           0.0000     STORAGE                          
              STO-SY =  3314752827.9787                STO-SY =        1354.9135     STORAGE                          
      CSUB-CGELASTIC =     8957287.1003        CSUB-CGELASTIC =          37.2557     CSUB                             
        CSUB-ELASTIC =    23203202.3051          CSUB-ELASTIC =           9.1143     CSUB                             
      CSUB-INELASTIC =     6317392.7041        CSUB-INELASTIC =           0.0000     CSUB                             
      CSUB-WATERCOMP =    11841565.8473        CSUB-WATERCOMP =           4.5761     CSUB                             
                 WEL =           0.0000                   WEL =           0.0000     WEL_0                            
                 RCH =  1605492900.0000                   RCH =       39600.0000     RCH_0                            
                 CHD =           0.0000                   CHD =           0.0000     CHD_0                            

            TOTAL IN =  4970565175.9355              TOTAL IN =       41005.8596

          OUT:                                     OUT:
          ----                                     ----
              STO-SS =           0.0000                STO-SS =           0.0000     STORAGE                          
              STO-SY =   571298044.7365                STO-SY =       14916.0394     STORAGE                          
      CSUB-CGELASTIC =     8697935.5801        CSUB-CGELASTIC =          36.1240     CSUB                             
        CSUB-ELASTIC =     3632327.7769          CSUB-ELASTIC =          95.0232     CSUB                             
      CSUB-INELASTIC =           0.0000        CSUB-INELASTIC =           0.0000     CSUB                             
      CSUB-WATERCOMP =     2034905.3907        CSUB-WATERCOMP =          51.6241     CSUB                             
                 WEL =  3155760000.0000                   WEL =           0.0000     WEL_0                            
                 RCH =           0.0000                   RCH =           0.0000     RCH_0                            
                 CHD =  1229141962.4453                   CHD =       25907.0489     CHD_0                            

           TOTAL OUT =  4970565175.9296             TOTAL OUT =       41005.8596

            IN - OUT =       5.8727E-03              IN - OUT =       1.6473E-08

 PERCENT DISCREPANCY =           0.00     PERCENT DISCREPANCY =           0.00




         TIME SUMMARY AT END OF TIME STEP   51 IN STRESS PERIOD    3
                    SECONDS     MINUTES      HOURS       DAYS        YEARS
                    -----------------------------------------------------------
   TIME STEP LENGTH 3.15576E+07 5.25960E+05  8766.0      365.25      1.0000    
 STRESS PERIOD TIME 1.60944E+09 2.68240E+07 4.47066E+05  18628.      51.000    
         TOTAL TIME 3.50289E+09 5.83816E+07 9.73026E+05  40543.      111.00    


end timestep


start timestep kper="3" kstp="52" mode="normal"

 UBDSV1 SAVING           STO-SS ON UNIT   1020 AT TIME STEP     52, STRESS PERIOD      3
 UBDSV1 SAVING           STO-SY ON UNIT   1020 AT TIME STEP     52, STRESS PERIOD      3
 UBDSV1 SAVING     FLOW-JA-FACE ON UNIT   1020 AT TIME STEP     52, STRESS PERIOD      3
 UBDSV06 SAVING       DATA-SPDIS IN MODEL EX-GWF-CSUB-P04  PACKAGE NPF             CONNECTED TO MODEL EX-GWF-CSUB-P04  PACKAGE NPF              ON UNIT   1020 AT TIME STEP     52, STRESS PERIOD      3
 UBDSV1 SAVING  CSUB-CGELASTIC  ON UNIT   1020 AT TIME STEP     52, STRESS PERIOD      3
 UBDSV06 SAVING    CSUB-ELASTIC  IN MODEL EX-GWF-CSUB-P04  PACKAGE EX-GWF-CSUB-P04 CONNECTED TO MODEL EX-GWF-CSUB-P04  PACKAGE CSUB             ON UNIT   1020 AT TIME STEP     52, STRESS PERIOD      3
 UBDSV06 SAVING  CSUB-INELASTIC  IN MODEL EX-GWF-CSUB-P04  PACKAGE EX-GWF-CSUB-P04 CONNECTED TO MODEL EX-GWF-CSUB-P04  PACKAGE CSUB             ON UNIT   1020 AT TIME STEP     52, STRESS PERIOD      3
 UBDSV1 SAVING  CSUB-WATERCOMP  ON UNIT   1020 AT TIME STEP     52, STRESS PERIOD      3
 UBDSV06 SAVING              WEL IN MODEL EX-GWF-CSUB-P04  PACKAGE EX-GWF-CSUB-P04 CONNECTED TO MODEL EX-GWF-CSUB-P04  PACKAGE WEL_0            ON UNIT   1020 AT TIME STEP     52, STRESS PERIOD      3
 UBDSV06 SAVING              RCH IN MODEL EX-GWF-CSUB-P04  PACKAGE EX-GWF-CSUB-P04 CONNECTED TO MODEL EX-GWF-CSUB-P04  PACKAGE RCH_0            ON UNIT   1020 AT TIME STEP     52, STRESS PERIOD      3
 UBDSV06 SAVING              CHD IN MODEL EX-GWF-CSUB-P04  PACKAGE EX-GWF-CSUB-P04 CONNECTED TO MODEL EX-GWF-CSUB-P04  PACKAGE CHD_0            ON UNIT   1020 AT TIME STEP     52, STRESS PERIOD      3

 HEAD WILL BE SAVED ON UNIT 1021 AT END OF TIME STEP   52, STRESS PERIOD    3


  VOLUME BUDGET FOR ENTIRE MODEL AT END OF TIME STEP   52, STRESS PERIOD   3
  ---------------------------------------------------------------------------------------------------

     CUMULATIVE VOLUME      L**3       RATES FOR THIS TIME STEP      L**3/T          PACKAGE NAME    
     ------------------                 ------------------------                     ----------------

           IN:                                      IN:
           ---                                      ---
              STO-SS =           0.0000                STO-SS =           0.0000     STORAGE                          
              STO-SY =  3315207802.7657                STO-SY =        1245.6531     STORAGE                          
      CSUB-CGELASTIC =     8970680.2654        CSUB-CGELASTIC =          36.6685     CSUB                             
        CSUB-ELASTIC =    23206256.3541          CSUB-ELASTIC =           8.3615     CSUB                             
      CSUB-INELASTIC =     6317392.7041        CSUB-INELASTIC =           0.0000     CSUB                             
      CSUB-WATERCOMP =    11843098.7236        CSUB-WATERCOMP =           4.1968     CSUB                             
                 WEL =           0.0000                   WEL =           0.0000     WEL_0                            
                 RCH =  1619956800.0000                   RCH =       39600.0000     RCH_0                            
                 CHD =           0.0000                   CHD =           0.0000     CHD_0                            

            TOTAL IN =  4985502030.8129              TOTAL IN =       40894.8799

          OUT:                                     OUT:
          ----                                     ----
              STO-SS =           0.0000                STO-SS =           0.0000     STORAGE                          
              STO-SY =   576691685.6295                STO-SY =       14766.9840     STORAGE                          
      CSUB-CGELASTIC =     8710925.1492        CSUB-CGELASTIC =          35.5635     CSUB                             
        CSUB-ELASTIC =     3666709.3229          CSUB-ELASTIC =          94.1315     CSUB                             
      CSUB-INELASTIC =           0.0000        CSUB-INELASTIC =           0.0000     CSUB                             
      CSUB-WATERCOMP =     2053577.3549        CSUB-WATERCOMP =          51.1211     CSUB                             
                 WEL =  3155760000.0000                   WEL =           0.0000     WEL_0                            
                 RCH =           0.0000                   RCH =           0.0000     RCH_0                            
                 CHD =  1238619133.3505                   CHD =       25947.0798     CHD_0                            

           TOTAL OUT =  4985502030.8070             TOTAL OUT =       40894.8799

            IN - OUT =       5.8689E-03              IN - OUT =      -1.0179E-08

 PERCENT DISCREPANCY =           0.00     PERCENT DISCREPANCY =          -0.00




         TIME SUMMARY AT END OF TIME STEP   52 IN STRESS PERIOD    3
                    SECONDS     MINUTES      HOURS       DAYS        YEARS
                    -----------------------------------------------------------
   TIME STEP LENGTH 3.15576E+07 5.25960E+05  8766.0      365.25      1.0000    
 STRESS PERIOD TIME 1.64100E+09 2.73499E+07 4.55832E+05  18993.      52.000    
         TOTAL TIME 3.53445E+09 5.89075E+07 9.81792E+05  40908.      112.00    


end timestep


start timestep kper="3" kstp="53" mode="normal"

 UBDSV1 SAVING           STO-SS ON UNIT   1020 AT TIME STEP     53, STRESS PERIOD      3
 UBDSV1 SAVING           STO-SY ON UNIT   1020 AT TIME STEP     53, STRESS PERIOD      3
 UBDSV1 SAVING     FLOW-JA-FACE ON UNIT   1020 AT TIME STEP     53, STRESS PERIOD      3
 UBDSV06 SAVING       DATA-SPDIS IN MODEL EX-GWF-CSUB-P04  PACKAGE NPF             CONNECTED TO MODEL EX-GWF-CSUB-P04  PACKAGE NPF              ON UNIT   1020 AT TIME STEP     53, STRESS PERIOD      3
 UBDSV1 SAVING  CSUB-CGELASTIC  ON UNIT   1020 AT TIME STEP     53, STRESS PERIOD      3
 UBDSV06 SAVING    CSUB-ELASTIC  IN MODEL EX-GWF-CSUB-P04  PACKAGE EX-GWF-CSUB-P04 CONNECTED TO MODEL EX-GWF-CSUB-P04  PACKAGE CSUB             ON UNIT   1020 AT TIME STEP     53, STRESS PERIOD      3
 UBDSV06 SAVING  CSUB-INELASTIC  IN MODEL EX-GWF-CSUB-P04  PACKAGE EX-GWF-CSUB-P04 CONNECTED TO MODEL EX-GWF-CSUB-P04  PACKAGE CSUB             ON UNIT   1020 AT TIME STEP     53, STRESS PERIOD      3
 UBDSV1 SAVING  CSUB-WATERCOMP  ON UNIT   1020 AT TIME STEP     53, STRESS PERIOD      3
 UBDSV06 SAVING              WEL IN MODEL EX-GWF-CSUB-P04  PACKAGE EX-GWF-CSUB-P04 CONNECTED TO MODEL EX-GWF-CSUB-P04  PACKAGE WEL_0            ON UNIT   1020 AT TIME STEP     53, STRESS PERIOD      3
 UBDSV06 SAVING              RCH IN MODEL EX-GWF-CSUB-P04  PACKAGE EX-GWF-CSUB-P04 CONNECTED TO MODEL EX-GWF-CSUB-P04  PACKAGE RCH_0            ON UNIT   1020 AT TIME STEP     53, STRESS PERIOD      3
 UBDSV06 SAVING              CHD IN MODEL EX-GWF-CSUB-P04  PACKAGE EX-GWF-CSUB-P04 CONNECTED TO MODEL EX-GWF-CSUB-P04  PACKAGE CHD_0            ON UNIT   1020 AT TIME STEP     53, STRESS PERIOD      3

 HEAD WILL BE SAVED ON UNIT 1021 AT END OF TIME STEP   53, STRESS PERIOD    3


  VOLUME BUDGET FOR ENTIRE MODEL AT END OF TIME STEP   53, STRESS PERIOD   3
  ---------------------------------------------------------------------------------------------------

     CUMULATIVE VOLUME      L**3       RATES FOR THIS TIME STEP      L**3/T          PACKAGE NAME    
     ------------------                 ------------------------                     ----------------

           IN:                                      IN:
           ---                                      ---
              STO-SS =           0.0000                STO-SS =           0.0000     STORAGE                          
              STO-SY =  3315624668.8208                STO-SY =        1141.3171     STORAGE                          
      CSUB-CGELASTIC =     8983867.3044        CSUB-CGELASTIC =          36.1041     CSUB                             
        CSUB-ELASTIC =    23209048.5263          CSUB-ELASTIC =           7.6446     CSUB                             
      CSUB-INELASTIC =     6317392.7041        CSUB-INELASTIC =           0.0000     CSUB                             
      CSUB-WATERCOMP =    11844499.4995        CSUB-WATERCOMP =           3.8351     CSUB                             
                 WEL =           0.0000                   WEL =           0.0000     WEL_0                            
                 RCH =  1634420700.0000                   RCH =       39600.0000     RCH_0                            
                 CHD =           0.0000                   CHD =           0.0000     CHD_0                            

            TOTAL IN =  5000400176.8550              TOTAL IN =       40788.9009

          OUT:                                     OUT:
          ----                                     ----
              STO-SS =           0.0000                STO-SS =           0.0000     STORAGE                          
              STO-SY =   582032658.8636                STO-SY =       14622.7878     STORAGE                          
      CSUB-CGELASTIC =     8723718.0869        CSUB-CGELASTIC =          35.0252     CSUB                             
        CSUB-ELASTIC =     3700776.8233          CSUB-ELASTIC =          93.2717     CSUB                             
      CSUB-INELASTIC =           0.0000        CSUB-INELASTIC =           0.0000     CSUB                             
      CSUB-WATERCOMP =     2072071.8366        CSUB-WATERCOMP =          50.6351     CSUB                             
                 WEL =  3155760000.0000                   WEL =           0.0000     WEL_0                            
                 RCH =           0.0000                   RCH =           0.0000     RCH_0                            
                 CHD =  1248110951.2387                   CHD =       25987.1811     CHD_0                            

           TOTAL OUT =  5000400176.8491             TOTAL OUT =       40788.9009

            IN - OUT =       5.9147E-03              IN - OUT =       1.2247E-07

 PERCENT DISCREPANCY =           0.00     PERCENT DISCREPANCY =           0.00




         TIME SUMMARY AT END OF TIME STEP   53 IN STRESS PERIOD    3
                    SECONDS     MINUTES      HOURS       DAYS        YEARS
                    -----------------------------------------------------------
   TIME STEP LENGTH 3.15576E+07 5.25960E+05  8766.0      365.25      1.0000    
 STRESS PERIOD TIME 1.67255E+09 2.78759E+07 4.64598E+05  19358.      53.000    
         TOTAL TIME 3.56601E+09 5.94335E+07 9.90558E+05  41273.      113.00    


end timestep


start timestep kper="3" kstp="54" mode="normal"

 UBDSV1 SAVING           STO-SS ON UNIT   1020 AT TIME STEP     54, STRESS PERIOD      3
 UBDSV1 SAVING           STO-SY ON UNIT   1020 AT TIME STEP     54, STRESS PERIOD      3
 UBDSV1 SAVING     FLOW-JA-FACE ON UNIT   1020 AT TIME STEP     54, STRESS PERIOD      3
 UBDSV06 SAVING       DATA-SPDIS IN MODEL EX-GWF-CSUB-P04  PACKAGE NPF             CONNECTED TO MODEL EX-GWF-CSUB-P04  PACKAGE NPF              ON UNIT   1020 AT TIME STEP     54, STRESS PERIOD      3
 UBDSV1 SAVING  CSUB-CGELASTIC  ON UNIT   1020 AT TIME STEP     54, STRESS PERIOD      3
 UBDSV06 SAVING    CSUB-ELASTIC  IN MODEL EX-GWF-CSUB-P04  PACKAGE EX-GWF-CSUB-P04 CONNECTED TO MODEL EX-GWF-CSUB-P04  PACKAGE CSUB             ON UNIT   1020 AT TIME STEP     54, STRESS PERIOD      3
 UBDSV06 SAVING  CSUB-INELASTIC  IN MODEL EX-GWF-CSUB-P04  PACKAGE EX-GWF-CSUB-P04 CONNECTED TO MODEL EX-GWF-CSUB-P04  PACKAGE CSUB             ON UNIT   1020 AT TIME STEP     54, STRESS PERIOD      3
 UBDSV1 SAVING  CSUB-WATERCOMP  ON UNIT   1020 AT TIME STEP     54, STRESS PERIOD      3
 UBDSV06 SAVING              WEL IN MODEL EX-GWF-CSUB-P04  PACKAGE EX-GWF-CSUB-P04 CONNECTED TO MODEL EX-GWF-CSUB-P04  PACKAGE WEL_0            ON UNIT   1020 AT TIME STEP     54, STRESS PERIOD      3
 UBDSV06 SAVING              RCH IN MODEL EX-GWF-CSUB-P04  PACKAGE EX-GWF-CSUB-P04 CONNECTED TO MODEL EX-GWF-CSUB-P04  PACKAGE RCH_0            ON UNIT   1020 AT TIME STEP     54, STRESS PERIOD      3
 UBDSV06 SAVING              CHD IN MODEL EX-GWF-CSUB-P04  PACKAGE EX-GWF-CSUB-P04 CONNECTED TO MODEL EX-GWF-CSUB-P04  PACKAGE CHD_0            ON UNIT   1020 AT TIME STEP     54, STRESS PERIOD      3

 HEAD WILL BE SAVED ON UNIT 1021 AT END OF TIME STEP   54, STRESS PERIOD    3


  VOLUME BUDGET FOR ENTIRE MODEL AT END OF TIME STEP   54, STRESS PERIOD   3
  ---------------------------------------------------------------------------------------------------

     CUMULATIVE VOLUME      L**3       RATES FOR THIS TIME STEP      L**3/T          PACKAGE NAME    
     ------------------                 ------------------------                     ----------------

           IN:                                      IN:
           ---                                      ---
              STO-SS =           0.0000                STO-SS =           0.0000     STORAGE                          
              STO-SY =  3316005044.6647                STO-SY =        1041.4123     STORAGE                          
      CSUB-CGELASTIC =     8996855.4600        CSUB-CGELASTIC =          35.5596     CSUB                             
        CSUB-ELASTIC =    23211590.4095          CSUB-ELASTIC =           6.9593     CSUB                             
      CSUB-INELASTIC =     6317392.7041        CSUB-INELASTIC =           0.0000     CSUB                             
      CSUB-WATERCOMP =    11845774.4263        CSUB-WATERCOMP =           3.4906     CSUB                             
                 WEL =           0.0000                   WEL =           0.0000     WEL_0                            
                 RCH =  1648884600.0000                   RCH =       39600.0000     RCH_0                            
                 CHD =           0.0000                   CHD =           0.0000     CHD_0                            

            TOTAL IN =  5015261257.6646              TOTAL IN =       40687.4218

          OUT:                                     OUT:
          ----                                     ----
              STO-SS =           0.0000                STO-SS =           0.0000     STORAGE                          
              STO-SY =   587322572.2291                STO-SY =       14482.9935     STORAGE                          
      CSUB-CGELASTIC =     8736321.4154        CSUB-CGELASTIC =          34.5060     CSUB                             
        CSUB-ELASTIC =     3734540.5617          CSUB-ELASTIC =          92.4401     CSUB                             
      CSUB-INELASTIC =           0.0000        CSUB-INELASTIC =           0.0000     CSUB                             
      CSUB-WATERCOMP =     2090394.9315        CSUB-WATERCOMP =          50.1659     CSUB                             
                 WEL =  3155760000.0000                   WEL =           0.0000     WEL_0                            
                 RCH =           0.0000                   RCH =           0.0000     RCH_0                            
                 CHD =  1257617428.5210                   CHD =       26027.3163     CHD_0                            

           TOTAL OUT =  5015261257.6586             TOTAL OUT =       40687.4218

            IN - OUT =       5.9528E-03              IN - OUT =       1.0430E-07

 PERCENT DISCREPANCY =           0.00     PERCENT DISCREPANCY =           0.00




         TIME SUMMARY AT END OF TIME STEP   54 IN STRESS PERIOD    3
                    SECONDS     MINUTES      HOURS       DAYS        YEARS
                    -----------------------------------------------------------
   TIME STEP LENGTH 3.15576E+07 5.25960E+05  8766.0      365.25      1.0000    
 STRESS PERIOD TIME 1.70411E+09 2.84018E+07 4.73364E+05  19724.      54.000    
         TOTAL TIME 3.59757E+09 5.99594E+07 9.99324E+05  41638.      114.00    


end timestep


start timestep kper="3" kstp="55" mode="normal"

 UBDSV1 SAVING           STO-SS ON UNIT   1020 AT TIME STEP     55, STRESS PERIOD      3
 UBDSV1 SAVING           STO-SY ON UNIT   1020 AT TIME STEP     55, STRESS PERIOD      3
 UBDSV1 SAVING     FLOW-JA-FACE ON UNIT   1020 AT TIME STEP     55, STRESS PERIOD      3
 UBDSV06 SAVING       DATA-SPDIS IN MODEL EX-GWF-CSUB-P04  PACKAGE NPF             CONNECTED TO MODEL EX-GWF-CSUB-P04  PACKAGE NPF              ON UNIT   1020 AT TIME STEP     55, STRESS PERIOD      3
 UBDSV1 SAVING  CSUB-CGELASTIC  ON UNIT   1020 AT TIME STEP     55, STRESS PERIOD      3
 UBDSV06 SAVING    CSUB-ELASTIC  IN MODEL EX-GWF-CSUB-P04  PACKAGE EX-GWF-CSUB-P04 CONNECTED TO MODEL EX-GWF-CSUB-P04  PACKAGE CSUB             ON UNIT   1020 AT TIME STEP     55, STRESS PERIOD      3
 UBDSV06 SAVING  CSUB-INELASTIC  IN MODEL EX-GWF-CSUB-P04  PACKAGE EX-GWF-CSUB-P04 CONNECTED TO MODEL EX-GWF-CSUB-P04  PACKAGE CSUB             ON UNIT   1020 AT TIME STEP     55, STRESS PERIOD      3
 UBDSV1 SAVING  CSUB-WATERCOMP  ON UNIT   1020 AT TIME STEP     55, STRESS PERIOD      3
 UBDSV06 SAVING              WEL IN MODEL EX-GWF-CSUB-P04  PACKAGE EX-GWF-CSUB-P04 CONNECTED TO MODEL EX-GWF-CSUB-P04  PACKAGE WEL_0            ON UNIT   1020 AT TIME STEP     55, STRESS PERIOD      3
 UBDSV06 SAVING              RCH IN MODEL EX-GWF-CSUB-P04  PACKAGE EX-GWF-CSUB-P04 CONNECTED TO MODEL EX-GWF-CSUB-P04  PACKAGE RCH_0            ON UNIT   1020 AT TIME STEP     55, STRESS PERIOD      3
 UBDSV06 SAVING              CHD IN MODEL EX-GWF-CSUB-P04  PACKAGE EX-GWF-CSUB-P04 CONNECTED TO MODEL EX-GWF-CSUB-P04  PACKAGE CHD_0            ON UNIT   1020 AT TIME STEP     55, STRESS PERIOD      3

 HEAD WILL BE SAVED ON UNIT 1021 AT END OF TIME STEP   55, STRESS PERIOD    3


  VOLUME BUDGET FOR ENTIRE MODEL AT END OF TIME STEP   55, STRESS PERIOD   3
  ---------------------------------------------------------------------------------------------------

     CUMULATIVE VOLUME      L**3       RATES FOR THIS TIME STEP      L**3/T          PACKAGE NAME    
     ------------------                 ------------------------                     ----------------

           IN:                                      IN:
           ---                                      ---
              STO-SS =           0.0000                STO-SS =           0.0000     STORAGE                          
              STO-SY =  3316350792.1810                STO-SY =         946.6051     STORAGE                          
      CSUB-CGELASTIC =     9009653.3518        CSUB-CGELASTIC =          35.0387     CSUB                             
        CSUB-ELASTIC =    23213895.1152          CSUB-ELASTIC =           6.3099     CSUB                             
      CSUB-INELASTIC =     6317392.7041        CSUB-INELASTIC =           0.0000     CSUB                             
      CSUB-WATERCOMP =    11846929.7288        CSUB-WATERCOMP =           3.1630     CSUB                             
                 WEL =           0.0000                   WEL =           0.0000     WEL_0                            
                 RCH =  1663348500.0000                   RCH =       39600.0000     RCH_0                            
                 CHD =           0.0000                   CHD =           0.0000     CHD_0                            

            TOTAL IN =  5030087163.0809              TOTAL IN =       40591.1168

          OUT:                                     OUT:
          ----                                     ----
              STO-SS =           0.0000                STO-SS =           0.0000     STORAGE                          
              STO-SY =   592563288.8506                STO-SY =       14348.3001     STORAGE                          
      CSUB-CGELASTIC =     8748743.5422        CSUB-CGELASTIC =          34.0099     CSUB                             
        CSUB-ELASTIC =     3768012.4822          CSUB-ELASTIC =          91.6411     CSUB                             
      CSUB-INELASTIC =           0.0000        CSUB-INELASTIC =           0.0000     CSUB                             
      CSUB-WATERCOMP =     2108552.7537        CSUB-WATERCOMP =          49.7134     CSUB                             
                 WEL =  3155760000.0000                   WEL =           0.0000     WEL_0                            
                 RCH =           0.0000                   RCH =           0.0000     RCH_0                            
                 CHD =  1267138565.4462                   CHD =       26067.4522     CHD_0                            

           TOTAL OUT =  5030087163.0749             TOTAL OUT =       40591.1168

            IN - OUT =       5.9586E-03              IN - OUT =       1.9085E-08

 PERCENT DISCREPANCY =           0.00     PERCENT DISCREPANCY =           0.00




         TIME SUMMARY AT END OF TIME STEP   55 IN STRESS PERIOD    3
                    SECONDS     MINUTES      HOURS       DAYS        YEARS
                    -----------------------------------------------------------
   TIME STEP LENGTH 3.15576E+07 5.25960E+05  8766.0      365.25      1.0000    
 STRESS PERIOD TIME 1.73567E+09 2.89278E+07 4.82130E+05  20089.      55.000    
         TOTAL TIME 3.62912E+09 6.04854E+07 1.00809E+06  42004.      115.00    


end timestep


start timestep kper="3" kstp="56" mode="normal"

 UBDSV1 SAVING           STO-SS ON UNIT   1020 AT TIME STEP     56, STRESS PERIOD      3
 UBDSV1 SAVING           STO-SY ON UNIT   1020 AT TIME STEP     56, STRESS PERIOD      3
 UBDSV1 SAVING     FLOW-JA-FACE ON UNIT   1020 AT TIME STEP     56, STRESS PERIOD      3
 UBDSV06 SAVING       DATA-SPDIS IN MODEL EX-GWF-CSUB-P04  PACKAGE NPF             CONNECTED TO MODEL EX-GWF-CSUB-P04  PACKAGE NPF              ON UNIT   1020 AT TIME STEP     56, STRESS PERIOD      3
 UBDSV1 SAVING  CSUB-CGELASTIC  ON UNIT   1020 AT TIME STEP     56, STRESS PERIOD      3
 UBDSV06 SAVING    CSUB-ELASTIC  IN MODEL EX-GWF-CSUB-P04  PACKAGE EX-GWF-CSUB-P04 CONNECTED TO MODEL EX-GWF-CSUB-P04  PACKAGE CSUB             ON UNIT   1020 AT TIME STEP     56, STRESS PERIOD      3
 UBDSV06 SAVING  CSUB-INELASTIC  IN MODEL EX-GWF-CSUB-P04  PACKAGE EX-GWF-CSUB-P04 CONNECTED TO MODEL EX-GWF-CSUB-P04  PACKAGE CSUB             ON UNIT   1020 AT TIME STEP     56, STRESS PERIOD      3
 UBDSV1 SAVING  CSUB-WATERCOMP  ON UNIT   1020 AT TIME STEP     56, STRESS PERIOD      3
 UBDSV06 SAVING              WEL IN MODEL EX-GWF-CSUB-P04  PACKAGE EX-GWF-CSUB-P04 CONNECTED TO MODEL EX-GWF-CSUB-P04  PACKAGE WEL_0            ON UNIT   1020 AT TIME STEP     56, STRESS PERIOD      3
 UBDSV06 SAVING              RCH IN MODEL EX-GWF-CSUB-P04  PACKAGE EX-GWF-CSUB-P04 CONNECTED TO MODEL EX-GWF-CSUB-P04  PACKAGE RCH_0            ON UNIT   1020 AT TIME STEP     56, STRESS PERIOD      3
 UBDSV06 SAVING              CHD IN MODEL EX-GWF-CSUB-P04  PACKAGE EX-GWF-CSUB-P04 CONNECTED TO MODEL EX-GWF-CSUB-P04  PACKAGE CHD_0            ON UNIT   1020 AT TIME STEP     56, STRESS PERIOD      3

 HEAD WILL BE SAVED ON UNIT 1021 AT END OF TIME STEP   56, STRESS PERIOD    3


  VOLUME BUDGET FOR ENTIRE MODEL AT END OF TIME STEP   56, STRESS PERIOD   3
  ---------------------------------------------------------------------------------------------------

     CUMULATIVE VOLUME      L**3       RATES FOR THIS TIME STEP      L**3/T          PACKAGE NAME    
     ------------------                 ------------------------                     ----------------

           IN:                                      IN:
           ---                                      ---
              STO-SS =           0.0000                STO-SS =           0.0000     STORAGE                          
              STO-SY =  3316663835.1414                STO-SY =         857.0649     STORAGE                          
      CSUB-CGELASTIC =     9022269.4064        CSUB-CGELASTIC =          34.5409     CSUB                             
        CSUB-ELASTIC =    23215975.5818          CSUB-ELASTIC =           5.6960     CSUB                             
      CSUB-INELASTIC =     6317392.7041        CSUB-INELASTIC =           0.0000     CSUB                             
      CSUB-WATERCOMP =    11847972.1455        CSUB-WATERCOMP =           2.8540     CSUB                             
                 WEL =           0.0000                   WEL =           0.0000     WEL_0                            
                 RCH =  1677812400.0000                   RCH =       39600.0000     RCH_0                            
                 CHD =           0.0000                   CHD =           0.0000     CHD_0                            

            TOTAL IN =  5044879844.9792              TOTAL IN =       40500.1558

          OUT:                                     OUT:
          ----                                     ----
              STO-SS =           0.0000                STO-SS =           0.0000     STORAGE                          
              STO-SY =   597756744.6929                STO-SY =       14218.9072     STORAGE                          
      CSUB-CGELASTIC =     8760992.6895        CSUB-CGELASTIC =          33.5363     CSUB                             
        CSUB-ELASTIC =     3801204.4811          CSUB-ELASTIC =          90.8747     CSUB                             
      CSUB-INELASTIC =           0.0000        CSUB-INELASTIC =           0.0000     CSUB                             
      CSUB-WATERCOMP =     2126551.9731        CSUB-WATERCOMP =          49.2792     CSUB                             
                 WEL =  3155760000.0000                   WEL =           0.0000     WEL_0                            
                 RCH =           0.0000                   RCH =           0.0000     RCH_0                            
                 CHD =  1276674351.1366                   CHD =       26107.5584     CHD_0                            

           TOTAL OUT =  5044879844.9733             TOTAL OUT =       40500.1558

            IN - OUT =       5.9528E-03              IN - OUT =      -1.4261E-08

 PERCENT DISCREPANCY =           0.00     PERCENT DISCREPANCY =          -0.00




         TIME SUMMARY AT END OF TIME STEP   56 IN STRESS PERIOD    3
                    SECONDS     MINUTES      HOURS       DAYS        YEARS
                    -----------------------------------------------------------
   TIME STEP LENGTH 3.15576E+07 5.25960E+05  8766.0      365.25      1.0000    
 STRESS PERIOD TIME 1.76723E+09 2.94538E+07 4.90896E+05  20454.      56.000    
         TOTAL TIME 3.66068E+09 6.10114E+07 1.01686E+06  42369.      116.00    


end timestep


start timestep kper="3" kstp="57" mode="normal"

 UBDSV1 SAVING           STO-SS ON UNIT   1020 AT TIME STEP     57, STRESS PERIOD      3
 UBDSV1 SAVING           STO-SY ON UNIT   1020 AT TIME STEP     57, STRESS PERIOD      3
 UBDSV1 SAVING     FLOW-JA-FACE ON UNIT   1020 AT TIME STEP     57, STRESS PERIOD      3
 UBDSV06 SAVING       DATA-SPDIS IN MODEL EX-GWF-CSUB-P04  PACKAGE NPF             CONNECTED TO MODEL EX-GWF-CSUB-P04  PACKAGE NPF              ON UNIT   1020 AT TIME STEP     57, STRESS PERIOD      3
 UBDSV1 SAVING  CSUB-CGELASTIC  ON UNIT   1020 AT TIME STEP     57, STRESS PERIOD      3
 UBDSV06 SAVING    CSUB-ELASTIC  IN MODEL EX-GWF-CSUB-P04  PACKAGE EX-GWF-CSUB-P04 CONNECTED TO MODEL EX-GWF-CSUB-P04  PACKAGE CSUB             ON UNIT   1020 AT TIME STEP     57, STRESS PERIOD      3
 UBDSV06 SAVING  CSUB-INELASTIC  IN MODEL EX-GWF-CSUB-P04  PACKAGE EX-GWF-CSUB-P04 CONNECTED TO MODEL EX-GWF-CSUB-P04  PACKAGE CSUB             ON UNIT   1020 AT TIME STEP     57, STRESS PERIOD      3
 UBDSV1 SAVING  CSUB-WATERCOMP  ON UNIT   1020 AT TIME STEP     57, STRESS PERIOD      3
 UBDSV06 SAVING              WEL IN MODEL EX-GWF-CSUB-P04  PACKAGE EX-GWF-CSUB-P04 CONNECTED TO MODEL EX-GWF-CSUB-P04  PACKAGE WEL_0            ON UNIT   1020 AT TIME STEP     57, STRESS PERIOD      3
 UBDSV06 SAVING              RCH IN MODEL EX-GWF-CSUB-P04  PACKAGE EX-GWF-CSUB-P04 CONNECTED TO MODEL EX-GWF-CSUB-P04  PACKAGE RCH_0            ON UNIT   1020 AT TIME STEP     57, STRESS PERIOD      3
 UBDSV06 SAVING              CHD IN MODEL EX-GWF-CSUB-P04  PACKAGE EX-GWF-CSUB-P04 CONNECTED TO MODEL EX-GWF-CSUB-P04  PACKAGE CHD_0            ON UNIT   1020 AT TIME STEP     57, STRESS PERIOD      3

 HEAD WILL BE SAVED ON UNIT 1021 AT END OF TIME STEP   57, STRESS PERIOD    3


  VOLUME BUDGET FOR ENTIRE MODEL AT END OF TIME STEP   57, STRESS PERIOD   3
  ---------------------------------------------------------------------------------------------------

     CUMULATIVE VOLUME      L**3       RATES FOR THIS TIME STEP      L**3/T          PACKAGE NAME    
     ------------------                 ------------------------                     ----------------

           IN:                                      IN:
           ---                                      ---
              STO-SS =           0.0000                STO-SS =           0.0000     STORAGE                          
              STO-SY =  3316945614.0279                STO-SY =         771.4685     STORAGE                          
      CSUB-CGELASTIC =     9034711.2607        CSUB-CGELASTIC =          34.0639     CSUB                             
        CSUB-ELASTIC =    23217843.6921          CSUB-ELASTIC =           5.1146     CSUB                             
      CSUB-INELASTIC =     6317392.7041        CSUB-INELASTIC =           0.0000     CSUB                             
      CSUB-WATERCOMP =    11848907.0918        CSUB-WATERCOMP =           2.5597     CSUB                             
                 WEL =           0.0000                   WEL =           0.0000     WEL_0                            
                 RCH =  1692276300.0000                   RCH =       39600.0000     RCH_0                            
                 CHD =           0.0000                   CHD =           0.0000     CHD_0                            

            TOTAL IN =  5059640768.7767              TOTAL IN =       40413.2068

          OUT:                                     OUT:
          ----                                     ----
              STO-SS =           0.0000                STO-SS =           0.0000     STORAGE                          
              STO-SY =   602904402.4391                STO-SY =       14093.5188     STORAGE                          
      CSUB-CGELASTIC =     8773076.2969        CSUB-CGELASTIC =          33.0831     CSUB                             
        CSUB-ELASTIC =     3834127.5150          CSUB-ELASTIC =          90.1384     CSUB                             
      CSUB-INELASTIC =           0.0000        CSUB-INELASTIC =           0.0000     CSUB                             
      CSUB-WATERCOMP =     2144397.9746        CSUB-WATERCOMP =          48.8597     CSUB                             
                 WEL =  3155760000.0000                   WEL =           0.0000     WEL_0                            
                 RCH =           0.0000                   RCH =           0.0000     RCH_0                            
                 CHD =  1286224764.5450                   CHD =       26147.6069     CHD_0                            

           TOTAL OUT =  5059640768.7706             TOTAL OUT =       40413.2068

            IN - OUT =       6.0282E-03              IN - OUT =       2.0240E-07

 PERCENT DISCREPANCY =           0.00     PERCENT DISCREPANCY =           0.00




         TIME SUMMARY AT END OF TIME STEP   57 IN STRESS PERIOD    3
                    SECONDS     MINUTES      HOURS       DAYS        YEARS
                    -----------------------------------------------------------
   TIME STEP LENGTH 3.15576E+07 5.25960E+05  8766.0      365.25      1.0000    
 STRESS PERIOD TIME 1.79878E+09 2.99797E+07 4.99662E+05  20819.      57.000    
         TOTAL TIME 3.69224E+09 6.15373E+07 1.02562E+06  42734.      117.00    


end timestep


start timestep kper="3" kstp="58" mode="normal"

 UBDSV1 SAVING           STO-SS ON UNIT   1020 AT TIME STEP     58, STRESS PERIOD      3
 UBDSV1 SAVING           STO-SY ON UNIT   1020 AT TIME STEP     58, STRESS PERIOD      3
 UBDSV1 SAVING     FLOW-JA-FACE ON UNIT   1020 AT TIME STEP     58, STRESS PERIOD      3
 UBDSV06 SAVING       DATA-SPDIS IN MODEL EX-GWF-CSUB-P04  PACKAGE NPF             CONNECTED TO MODEL EX-GWF-CSUB-P04  PACKAGE NPF              ON UNIT   1020 AT TIME STEP     58, STRESS PERIOD      3
 UBDSV1 SAVING  CSUB-CGELASTIC  ON UNIT   1020 AT TIME STEP     58, STRESS PERIOD      3
 UBDSV06 SAVING    CSUB-ELASTIC  IN MODEL EX-GWF-CSUB-P04  PACKAGE EX-GWF-CSUB-P04 CONNECTED TO MODEL EX-GWF-CSUB-P04  PACKAGE CSUB             ON UNIT   1020 AT TIME STEP     58, STRESS PERIOD      3
 UBDSV06 SAVING  CSUB-INELASTIC  IN MODEL EX-GWF-CSUB-P04  PACKAGE EX-GWF-CSUB-P04 CONNECTED TO MODEL EX-GWF-CSUB-P04  PACKAGE CSUB             ON UNIT   1020 AT TIME STEP     58, STRESS PERIOD      3
 UBDSV1 SAVING  CSUB-WATERCOMP  ON UNIT   1020 AT TIME STEP     58, STRESS PERIOD      3
 UBDSV06 SAVING              WEL IN MODEL EX-GWF-CSUB-P04  PACKAGE EX-GWF-CSUB-P04 CONNECTED TO MODEL EX-GWF-CSUB-P04  PACKAGE WEL_0            ON UNIT   1020 AT TIME STEP     58, STRESS PERIOD      3
 UBDSV06 SAVING              RCH IN MODEL EX-GWF-CSUB-P04  PACKAGE EX-GWF-CSUB-P04 CONNECTED TO MODEL EX-GWF-CSUB-P04  PACKAGE RCH_0            ON UNIT   1020 AT TIME STEP     58, STRESS PERIOD      3
 UBDSV06 SAVING              CHD IN MODEL EX-GWF-CSUB-P04  PACKAGE EX-GWF-CSUB-P04 CONNECTED TO MODEL EX-GWF-CSUB-P04  PACKAGE CHD_0            ON UNIT   1020 AT TIME STEP     58, STRESS PERIOD      3

 HEAD WILL BE SAVED ON UNIT 1021 AT END OF TIME STEP   58, STRESS PERIOD    3


  VOLUME BUDGET FOR ENTIRE MODEL AT END OF TIME STEP   58, STRESS PERIOD   3
  ---------------------------------------------------------------------------------------------------

     CUMULATIVE VOLUME      L**3       RATES FOR THIS TIME STEP      L**3/T          PACKAGE NAME    
     ------------------                 ------------------------                     ----------------

           IN:                                      IN:
           ---                                      ---
              STO-SS =           0.0000                STO-SS =           0.0000     STORAGE                          
              STO-SY =  3317198059.6509                STO-SY =         691.1584     STORAGE                          
      CSUB-CGELASTIC =     9046987.7486        CSUB-CGELASTIC =          33.6112     CSUB                             
        CSUB-ELASTIC =    23219512.9161          CSUB-ELASTIC =           4.5701     CSUB                             
      CSUB-INELASTIC =     6317392.7041        CSUB-INELASTIC =           0.0000     CSUB                             
      CSUB-WATERCOMP =    11849742.1636        CSUB-WATERCOMP =           2.2863     CSUB                             
                 WEL =           0.0000                   WEL =           0.0000     WEL_0                            
                 RCH =  1706740200.0000                   RCH =       39600.0000     RCH_0                            
                 CHD =           0.0000                   CHD =           0.0000     CHD_0                            

            TOTAL IN =  5074371895.1832              TOTAL IN =       40331.6260

          OUT:                                     OUT:
          ----                                     ----
              STO-SS =           0.0000                STO-SS =           0.0000     STORAGE                          
              STO-SY =   608008224.2345                STO-SY =       13973.5025     STORAGE                          
      CSUB-CGELASTIC =     8785003.0076        CSUB-CGELASTIC =          32.6536     CSUB                             
        CSUB-ELASTIC =     3866794.2343          CSUB-ELASTIC =          89.4366     CSUB                             
      CSUB-INELASTIC =           0.0000        CSUB-INELASTIC =           0.0000     CSUB                             
      CSUB-WATERCOMP =     2162098.3584        CSUB-WATERCOMP =          48.4610     CSUB                             
                 WEL =  3155760000.0000                   WEL =           0.0000     WEL_0                            
                 RCH =           0.0000                   RCH =           0.0000     RCH_0                            
                 CHD =  1295789775.3423                   CHD =       26187.5723     CHD_0                            

           TOTAL OUT =  5074371895.1772             TOTAL OUT =       40331.6260

            IN - OUT =       6.0654E-03              IN - OUT =       1.0266E-07

 PERCENT DISCREPANCY =           0.00     PERCENT DISCREPANCY =           0.00




         TIME SUMMARY AT END OF TIME STEP   58 IN STRESS PERIOD    3
                    SECONDS     MINUTES      HOURS       DAYS        YEARS
                    -----------------------------------------------------------
   TIME STEP LENGTH 3.15576E+07 5.25960E+05  8766.0      365.25      1.0000    
 STRESS PERIOD TIME 1.83034E+09 3.05057E+07 5.08428E+05  21184.      58.000    
         TOTAL TIME 3.72380E+09 6.20633E+07 1.03439E+06  43100.      118.00    


end timestep


start timestep kper="3" kstp="59" mode="normal"

 UBDSV1 SAVING           STO-SS ON UNIT   1020 AT TIME STEP     59, STRESS PERIOD      3
 UBDSV1 SAVING           STO-SY ON UNIT   1020 AT TIME STEP     59, STRESS PERIOD      3
 UBDSV1 SAVING     FLOW-JA-FACE ON UNIT   1020 AT TIME STEP     59, STRESS PERIOD      3
 UBDSV06 SAVING       DATA-SPDIS IN MODEL EX-GWF-CSUB-P04  PACKAGE NPF             CONNECTED TO MODEL EX-GWF-CSUB-P04  PACKAGE NPF              ON UNIT   1020 AT TIME STEP     59, STRESS PERIOD      3
 UBDSV1 SAVING  CSUB-CGELASTIC  ON UNIT   1020 AT TIME STEP     59, STRESS PERIOD      3
 UBDSV06 SAVING    CSUB-ELASTIC  IN MODEL EX-GWF-CSUB-P04  PACKAGE EX-GWF-CSUB-P04 CONNECTED TO MODEL EX-GWF-CSUB-P04  PACKAGE CSUB             ON UNIT   1020 AT TIME STEP     59, STRESS PERIOD      3
 UBDSV06 SAVING  CSUB-INELASTIC  IN MODEL EX-GWF-CSUB-P04  PACKAGE EX-GWF-CSUB-P04 CONNECTED TO MODEL EX-GWF-CSUB-P04  PACKAGE CSUB             ON UNIT   1020 AT TIME STEP     59, STRESS PERIOD      3
 UBDSV1 SAVING  CSUB-WATERCOMP  ON UNIT   1020 AT TIME STEP     59, STRESS PERIOD      3
 UBDSV06 SAVING              WEL IN MODEL EX-GWF-CSUB-P04  PACKAGE EX-GWF-CSUB-P04 CONNECTED TO MODEL EX-GWF-CSUB-P04  PACKAGE WEL_0            ON UNIT   1020 AT TIME STEP     59, STRESS PERIOD      3
 UBDSV06 SAVING              RCH IN MODEL EX-GWF-CSUB-P04  PACKAGE EX-GWF-CSUB-P04 CONNECTED TO MODEL EX-GWF-CSUB-P04  PACKAGE RCH_0            ON UNIT   1020 AT TIME STEP     59, STRESS PERIOD      3
 UBDSV06 SAVING              CHD IN MODEL EX-GWF-CSUB-P04  PACKAGE EX-GWF-CSUB-P04 CONNECTED TO MODEL EX-GWF-CSUB-P04  PACKAGE CHD_0            ON UNIT   1020 AT TIME STEP     59, STRESS PERIOD      3

 HEAD WILL BE SAVED ON UNIT 1021 AT END OF TIME STEP   59, STRESS PERIOD    3


  VOLUME BUDGET FOR ENTIRE MODEL AT END OF TIME STEP   59, STRESS PERIOD   3
  ---------------------------------------------------------------------------------------------------

     CUMULATIVE VOLUME      L**3       RATES FOR THIS TIME STEP      L**3/T          PACKAGE NAME    
     ------------------                 ------------------------                     ----------------

           IN:                                      IN:
           ---                                      ---
              STO-SS =           0.0000                STO-SS =           0.0000     STORAGE                          
              STO-SY =  3317422672.3770                STO-SY =         614.9561     STORAGE                          
      CSUB-CGELASTIC =     9059105.9216        CSUB-CGELASTIC =          33.1777     CSUB                             
        CSUB-ELASTIC =    23220994.9333          CSUB-ELASTIC =           4.0575     CSUB                             
      CSUB-INELASTIC =     6317392.7041        CSUB-INELASTIC =           0.0000     CSUB                             
      CSUB-WATERCOMP =    11850483.3325        CSUB-WATERCOMP =           2.0292     CSUB                             
                 WEL =           0.0000                   WEL =           0.0000     WEL_0                            
                 RCH =  1721204100.0000                   RCH =       39600.0000     RCH_0                            
                 CHD =           0.0000                   CHD =           0.0000     CHD_0                            

            TOTAL IN =  5089074749.2685              TOTAL IN =       40254.2206

          OUT:                                     OUT:
          ----                                     ----
              STO-SS =           0.0000                STO-SS =           0.0000     STORAGE                          
              STO-SY =   613069750.1064                STO-SY =       13857.7026     STORAGE                          
      CSUB-CGELASTIC =     8796779.6890        CSUB-CGELASTIC =          32.2428     CSUB                             
        CSUB-ELASTIC =     3899215.5971          CSUB-ELASTIC =          88.7649     CSUB                             
      CSUB-INELASTIC =           0.0000        CSUB-INELASTIC =           0.0000     CSUB                             
      CSUB-WATERCOMP =     2179659.1323        CSUB-WATERCOMP =          48.0788     CSUB                             
                 WEL =  3155760000.0000                   WEL =           0.0000     WEL_0                            
                 RCH =           0.0000                   RCH =           0.0000     RCH_0                            
                 CHD =  1305369344.7377                   CHD =       26227.4316     CHD_0                            

           TOTAL OUT =  5089074749.2625             TOTAL OUT =       40254.2206

            IN - OUT =       6.0720E-03              IN - OUT =       1.7040E-08

 PERCENT DISCREPANCY =           0.00     PERCENT DISCREPANCY =           0.00




         TIME SUMMARY AT END OF TIME STEP   59 IN STRESS PERIOD    3
                    SECONDS     MINUTES      HOURS       DAYS        YEARS
                    -----------------------------------------------------------
   TIME STEP LENGTH 3.15576E+07 5.25960E+05  8766.0      365.25      1.0000    
 STRESS PERIOD TIME 1.86190E+09 3.10316E+07 5.17194E+05  21550.      59.000    
         TOTAL TIME 3.75535E+09 6.25892E+07 1.04315E+06  43465.      119.00    


end timestep


start timestep kper="3" kstp="60" mode="normal"

 UBDSV1 SAVING           STO-SS ON UNIT   1020 AT TIME STEP     60, STRESS PERIOD      3
 UBDSV1 SAVING           STO-SY ON UNIT   1020 AT TIME STEP     60, STRESS PERIOD      3
 UBDSV1 SAVING     FLOW-JA-FACE ON UNIT   1020 AT TIME STEP     60, STRESS PERIOD      3
 UBDSV06 SAVING       DATA-SPDIS IN MODEL EX-GWF-CSUB-P04  PACKAGE NPF             CONNECTED TO MODEL EX-GWF-CSUB-P04  PACKAGE NPF              ON UNIT   1020 AT TIME STEP     60, STRESS PERIOD      3
 UBDSV1 SAVING  CSUB-CGELASTIC  ON UNIT   1020 AT TIME STEP     60, STRESS PERIOD      3
 UBDSV06 SAVING    CSUB-ELASTIC  IN MODEL EX-GWF-CSUB-P04  PACKAGE EX-GWF-CSUB-P04 CONNECTED TO MODEL EX-GWF-CSUB-P04  PACKAGE CSUB             ON UNIT   1020 AT TIME STEP     60, STRESS PERIOD      3
 UBDSV06 SAVING  CSUB-INELASTIC  IN MODEL EX-GWF-CSUB-P04  PACKAGE EX-GWF-CSUB-P04 CONNECTED TO MODEL EX-GWF-CSUB-P04  PACKAGE CSUB             ON UNIT   1020 AT TIME STEP     60, STRESS PERIOD      3
 UBDSV1 SAVING  CSUB-WATERCOMP  ON UNIT   1020 AT TIME STEP     60, STRESS PERIOD      3
 UBDSV06 SAVING              WEL IN MODEL EX-GWF-CSUB-P04  PACKAGE EX-GWF-CSUB-P04 CONNECTED TO MODEL EX-GWF-CSUB-P04  PACKAGE WEL_0            ON UNIT   1020 AT TIME STEP     60, STRESS PERIOD      3
 UBDSV06 SAVING              RCH IN MODEL EX-GWF-CSUB-P04  PACKAGE EX-GWF-CSUB-P04 CONNECTED TO MODEL EX-GWF-CSUB-P04  PACKAGE RCH_0            ON UNIT   1020 AT TIME STEP     60, STRESS PERIOD      3
 UBDSV06 SAVING              CHD IN MODEL EX-GWF-CSUB-P04  PACKAGE EX-GWF-CSUB-P04 CONNECTED TO MODEL EX-GWF-CSUB-P04  PACKAGE CHD_0            ON UNIT   1020 AT TIME STEP     60, STRESS PERIOD      3

 HEAD WILL BE SAVED ON UNIT 1021 AT END OF TIME STEP   60, STRESS PERIOD    3


  VOLUME BUDGET FOR ENTIRE MODEL AT END OF TIME STEP   60, STRESS PERIOD   3
  ---------------------------------------------------------------------------------------------------

     CUMULATIVE VOLUME      L**3       RATES FOR THIS TIME STEP      L**3/T          PACKAGE NAME    
     ------------------                 ------------------------                     ----------------

           IN:                                      IN:
           ---                                      ---
              STO-SS =           0.0000                STO-SS =           0.0000     STORAGE                          
              STO-SY =  3317622088.1285                STO-SY =         545.9706     STORAGE                          
      CSUB-CGELASTIC =     9071076.6741        CSUB-CGELASTIC =          32.7741     CSUB                             
        CSUB-ELASTIC =    23222305.5811          CSUB-ELASTIC =           3.5884     CSUB                             
      CSUB-INELASTIC =     6317392.7041        CSUB-INELASTIC =           0.0000     CSUB                             
      CSUB-WATERCOMP =    11851138.5099        CSUB-WATERCOMP =           1.7938     CSUB                             
                 WEL =           0.0000                   WEL =           0.0000     WEL_0                            
                 RCH =  1735668000.0000                   RCH =       39600.0000     RCH_0                            
                 CHD =           0.0000                   CHD =           0.0000     CHD_0                            

            TOTAL IN =  5103752001.5976              TOTAL IN =       40184.1268

          OUT:                                     OUT:
          ----                                     ----
              STO-SS =           0.0000                STO-SS =           0.0000     STORAGE                          
              STO-SY =   618091663.2128                STO-SY =       13749.2488     STORAGE                          
      CSUB-CGELASTIC =     8808417.0566        CSUB-CGELASTIC =          31.8614     CSUB                             
        CSUB-ELASTIC =     3931406.8094          CSUB-ELASTIC =          88.1347     CSUB                             
      CSUB-INELASTIC =           0.0000        CSUB-INELASTIC =           0.0000     CSUB                             
      CSUB-WATERCOMP =     2197088.2732        CSUB-WATERCOMP =          47.7184     CSUB                             
                 WEL =  3155760000.0000                   WEL =           0.0000     WEL_0                            
                 RCH =           0.0000                   RCH =           0.0000     RCH_0                            
                 CHD =  1314963426.2394                   CHD =       26267.1636     CHD_0                            

           TOTAL OUT =  5103752001.5915             TOTAL OUT =       40184.1268

            IN - OUT =       6.0616E-03              IN - OUT =      -2.7052E-08

 PERCENT DISCREPANCY =           0.00     PERCENT DISCREPANCY =          -0.00




         TIME SUMMARY AT END OF TIME STEP   60 IN STRESS PERIOD    3
                    SECONDS     MINUTES      HOURS       DAYS        YEARS
                    -----------------------------------------------------------
   TIME STEP LENGTH 3.15576E+07 5.25960E+05  8766.0      365.25      1.0000    
 STRESS PERIOD TIME 1.89346E+09 3.15576E+07 5.25960E+05  21915.      60.000    
         TOTAL TIME 3.78691E+09 6.31152E+07 1.05192E+06  43830.      120.00    


end timestep


 PERCENT COMPACTION WAS LESS THAN 1 PERCENT IN ALL INTERBEDS

 COARSE-GRAINED STORAGE PERCENT COMPACTION WAS LESS THAN 1 PERCENT IN ALL CELLS
